/*---------------------------------------------------------------------------*\
| =========                 |                                                 |
| \\      /  F ield         | OpenFOAM: The Open Source CFD Toolbox           |
|  \\    /   O peration     | Version:  2406                                  |
|   \\  /    A nd           | Website:  www.openfoam.com                      |
|    \\/     M anipulation  |                                                 |
\*---------------------------------------------------------------------------*/
Build  : _630d60de3b-20240620 OPENFOAM=2406 version=v2406
Arch   : "LSB;label=32;scalar=64"
Exec   : interFoam
Date   : Jul 07 2025
Time   : 22:11:38
Host   : piaopc
PID    : 22150
I/O    : uncollated
Case   : /mnt/g/Github/EVTDM/testTut/twoPhaseBox
nProcs : 1
trapFpe: Floating point exception trapping enabled (FOAM_SIGFPE).
fileModificationChecking : Monitoring run-time modified files using timeStampMaster (fileModificationSkew 5, maxFileModificationPolls 20)
allowSystemOperations : Allowing user-supplied system call operations

// * * * * * * * * * * * * * * * * * * * * * * * * * * * * * * * * * * * * * //
Create time

Create mesh for time = 0


PIMPLE: Operating solver in PISO mode

Reading field p_rgh

Reading field U

Reading/calculating face flux field phi

Reading transportProperties

Selecting incompressible transport model easyTime
Selecting incompressible transport model Newtonian
Selecting turbulence model type laminar
Selecting laminar stress model Stokes

Reading g

Reading hRef
Calculating field g.h

No MRF models present

No finite volume options present
DICPCG:  Solving for pcorr, Initial residual = 0, Final residual = 0, No Iterations 0
time step continuity errors : sum local = 0, global = 0, cumulative = 0
Courant Number mean: 0 max: 0

Starting time loop

Courant Number mean: 0 max: 0
Interface Courant Number mean: 0 max: 0
Time = 0.1

PIMPLE: iteration 1
smoothSolver:  Solving for alpha.grout, Initial residual = 0, Final residual = 0, No Iterations 0
Phase-1 volume fraction = 0.5  Min(alpha.grout) = 0  Max(alpha.grout) = 1
MULES: Correcting alpha.grout
MULES: Correcting alpha.grout
Phase-1 volume fraction = 0.5  Min(alpha.grout) = 0  Max(alpha.grout) = 1
DICPCG:  Solving for p_rgh, Initial residual = 1, Final residual = 0.0479891, No Iterations 26
time step continuity errors : sum local = 1.53617e-05, global = -4.61971e-06, cumulative = -4.61971e-06
DICPCG:  Solving for p_rgh, Initial residual = 4.03115e-06, Final residual = 1.7314e-07, No Iterations 32
time step continuity errors : sum local = 6.74972e-07, global = -4.13404e-07, cumulative = -5.03311e-06
DICPCG:  Solving for p_rgh, Initial residual = 2.57739e-07, Final residual = 9.8569e-08, No Iterations 24
time step continuity errors : sum local = 3.85093e-07, global = -2.73807e-07, cumulative = -5.30692e-06
ExecutionTime = 0.12 s  ClockTime = 0 s

fieldMinMax continuityError write:
    min(divPhi) = -0.00132156 in cell 5200 at location (0.005 0.525 0.005)
    max(divPhi) = 0.00136938 in cell 5101 at location (0.015 0.515 0.005)

--> FOAM Warning : 
    From virtual bool Foam::functionObjects::fieldSelection::checkSelection()
    in file functionObjects/fieldSelections/fieldSelection/fieldSelection.C at line 179
    Field U not found
--> FOAM Warning : 
    From virtual bool Foam::functionObjects::solverFieldSelection::updateSelection()
    in file functionObjects/fieldSelections/solverFieldSelection/solverFieldSelection.C at line 82
    Valid solver fields are: 2(alpha.grout p_rgh)Courant Number mean: 8.69998e-06 max: 7.29301e-05
Interface Courant Number mean: 0 max: 0
Time = 0.2

PIMPLE: iteration 1
smoothSolver:  Solving for alpha.grout, Initial residual = 1.39744e-08, Final residual = 3.382e-17, No Iterations 1
Phase-1 volume fraction = 0.5  Min(alpha.grout) = 0  Max(alpha.grout) = 1
MULES: Correcting alpha.grout
MULES: Correcting alpha.grout
Phase-1 volume fraction = 0.5  Min(alpha.grout) = -2.66122e-111  Max(alpha.grout) = 1
DICPCG:  Solving for p_rgh, Initial residual = 2.8742e-07, Final residual = 7.57175e-08, No Iterations 32
time step continuity errors : sum local = 2.95872e-07, global = -1.10914e-07, cumulative = -5.41783e-06
DICPCG:  Solving for p_rgh, Initial residual = 7.83359e-08, Final residual = 7.83359e-08, No Iterations 0
time step continuity errors : sum local = 3.06264e-07, global = -1.10914e-07, cumulative = -5.52875e-06
DICPCG:  Solving for p_rgh, Initial residual = 8.05623e-08, Final residual = 8.05623e-08, No Iterations 0
time step continuity errors : sum local = 3.14969e-07, global = -1.10914e-07, cumulative = -5.63966e-06
ExecutionTime = 0.13 s  ClockTime = 0 s

fieldMinMax continuityError write:
    min(divPhi) = -0.000146476 in cell 5201 at location (0.015 0.525 0.005)
    max(divPhi) = 0.000216675 in cell 5298 at location (0.985 0.525 0.005)

Courant Number mean: 3.68941e-06 max: 1.33618e-05
Interface Courant Number mean: 0 max: 0
Time = 0.3

PIMPLE: iteration 1
smoothSolver:  Solving for alpha.grout, Initial residual = 2.17644e-08, Final residual = 3.50087e-17, No Iterations 1
Phase-1 volume fraction = 0.5  Min(alpha.grout) = 0  Max(alpha.grout) = 1
MULES: Correcting alpha.grout
MULES: Correcting alpha.grout
Phase-1 volume fraction = 0.5  Min(alpha.grout) = -4.80866e-57  Max(alpha.grout) = 1
DICPCG:  Solving for p_rgh, Initial residual = 2.46391e-07, Final residual = 9.94705e-08, No Iterations 25
time step continuity errors : sum local = 3.8889e-07, global = 1.31632e-08, cumulative = -5.6265e-06
DICPCG:  Solving for p_rgh, Initial residual = 1.03043e-07, Final residual = 9.5747e-08, No Iterations 18
time step continuity errors : sum local = 3.7274e-07, global = 5.80169e-09, cumulative = -5.6207e-06
DICPCG:  Solving for p_rgh, Initial residual = 9.65549e-08, Final residual = 9.65549e-08, No Iterations 0
time step continuity errors : sum local = 3.7593e-07, global = 5.80169e-09, cumulative = -5.6149e-06
ExecutionTime = 0.15 s  ClockTime = 0 s

fieldMinMax continuityError write:
    min(divPhi) = -0.00111285 in cell 5200 at location (0.005 0.525 0.005)
    max(divPhi) = 0.00111851 in cell 5101 at location (0.015 0.515 0.005)

Courant Number mean: 4.76958e-07 max: 6.34805e-05
Interface Courant Number mean: 0 max: 0
Time = 0.4

PIMPLE: iteration 1
smoothSolver:  Solving for alpha.grout, Initial residual = 8.70556e-09, Final residual = 8.70556e-09, No Iterations 0
Phase-1 volume fraction = 0.5  Min(alpha.grout) = -4.80866e-57  Max(alpha.grout) = 1
MULES: Correcting alpha.grout
MULES: Correcting alpha.grout
Phase-1 volume fraction = 0.5  Min(alpha.grout) = -1.00974e-29  Max(alpha.grout) = 1
DICPCG:  Solving for p_rgh, Initial residual = 1.83147e-07, Final residual = 8.28029e-08, No Iterations 31
time step continuity errors : sum local = 3.22389e-07, global = 2.36868e-08, cumulative = -5.59121e-06
DICPCG:  Solving for p_rgh, Initial residual = 8.34134e-08, Final residual = 8.34134e-08, No Iterations 0
time step continuity errors : sum local = 3.26924e-07, global = 2.36868e-08, cumulative = -5.56752e-06
DICPCG:  Solving for p_rgh, Initial residual = 8.47336e-08, Final residual = 8.47336e-08, No Iterations 0
time step continuity errors : sum local = 3.32099e-07, global = 2.36868e-08, cumulative = -5.54383e-06
ExecutionTime = 0.17 s  ClockTime = 0 s

fieldMinMax continuityError write:
    min(divPhi) = -0.000616702 in cell 5201 at location (0.015 0.525 0.005)
    max(divPhi) = 0.000367404 in cell 5102 at location (0.025 0.515 0.005)

Courant Number mean: 9.10772e-07 max: 3.08351e-05
Interface Courant Number mean: 0 max: 0
Time = 0.5

PIMPLE: iteration 1
smoothSolver:  Solving for alpha.grout, Initial residual = 1.2559e-08, Final residual = 3.52507e-17, No Iterations 1
Phase-1 volume fraction = 0.5  Min(alpha.grout) = -7.76489e-39  Max(alpha.grout) = 1
MULES: Correcting alpha.grout
MULES: Correcting alpha.grout
Phase-1 volume fraction = 0.5  Min(alpha.grout) = -7.76489e-39  Max(alpha.grout) = 1
DICPCG:  Solving for p_rgh, Initial residual = 1.83047e-07, Final residual = 9.86175e-08, No Iterations 31
time step continuity errors : sum local = 3.86513e-07, global = -1.64064e-08, cumulative = -5.56024e-06
DICPCG:  Solving for p_rgh, Initial residual = 1.01879e-07, Final residual = 7.54654e-08, No Iterations 31
time step continuity errors : sum local = 2.92968e-07, global = -1.31539e-08, cumulative = -5.57339e-06
DICPCG:  Solving for p_rgh, Initial residual = 7.56529e-08, Final residual = 7.56529e-08, No Iterations 0
time step continuity errors : sum local = 2.94239e-07, global = -1.31539e-08, cumulative = -5.58655e-06
ExecutionTime = 0.19 s  ClockTime = 0 s

fieldMinMax continuityError write:
    min(divPhi) = -0.000342979 in cell 5202 at location (0.025 0.525 0.005)
    max(divPhi) = 0.000244134 in cell 5301 at location (0.015 0.535 0.005)

Courant Number mean: 2.65254e-07 max: 2.4934e-05
Interface Courant Number mean: 0 max: 0
Time = 0.6

PIMPLE: iteration 1
smoothSolver:  Solving for alpha.grout, Initial residual = 2.48439e-09, Final residual = 2.48439e-09, No Iterations 0
Phase-1 volume fraction = 0.5  Min(alpha.grout) = -7.76489e-39  Max(alpha.grout) = 1
MULES: Correcting alpha.grout
MULES: Correcting alpha.grout
Phase-1 volume fraction = 0.5  Min(alpha.grout) = -7.76489e-39  Max(alpha.grout) = 1
DICPCG:  Solving for p_rgh, Initial residual = 1.15184e-07, Final residual = 8.18104e-08, No Iterations 20
time step continuity errors : sum local = 3.18187e-07, global = -2.29359e-10, cumulative = -5.58678e-06
DICPCG:  Solving for p_rgh, Initial residual = 8.14339e-08, Final residual = 8.14339e-08, No Iterations 0
time step continuity errors : sum local = 3.19685e-07, global = -2.29359e-10, cumulative = -5.58701e-06
DICPCG:  Solving for p_rgh, Initial residual = 8.18567e-08, Final residual = 8.18567e-08, No Iterations 0
time step continuity errors : sum local = 3.21345e-07, global = -2.29359e-10, cumulative = -5.58724e-06
ExecutionTime = 0.2 s  ClockTime = 0 s

fieldMinMax continuityError write:
    min(divPhi) = -0.000556633 in cell 5201 at location (0.015 0.525 0.005)
    max(divPhi) = 0.000371673 in cell 5300 at location (0.005 0.535 0.005)

Courant Number mean: 2.84498e-07 max: 3.13247e-05
Interface Courant Number mean: 0 max: 0
Time = 0.7

PIMPLE: iteration 1
smoothSolver:  Solving for alpha.grout, Initial residual = 4.48942e-09, Final residual = 4.48942e-09, No Iterations 0
Phase-1 volume fraction = 0.5  Min(alpha.grout) = -7.76489e-39  Max(alpha.grout) = 1
MULES: Correcting alpha.grout
MULES: Correcting alpha.grout
Phase-1 volume fraction = 0.5  Min(alpha.grout) = -7.17465e-38  Max(alpha.grout) = 1
DICPCG:  Solving for p_rgh, Initial residual = 1.27126e-07, Final residual = 8.3339e-08, No Iterations 23
time step continuity errors : sum local = 3.27163e-07, global = 1.46293e-09, cumulative = -5.58577e-06
DICPCG:  Solving for p_rgh, Initial residual = 8.55182e-08, Final residual = 8.55182e-08, No Iterations 0
time step continuity errors : sum local = 3.30076e-07, global = 1.46293e-09, cumulative = -5.58431e-06
DICPCG:  Solving for p_rgh, Initial residual = 8.6319e-08, Final residual = 8.6319e-08, No Iterations 0
time step continuity errors : sum local = 3.33167e-07, global = 1.46293e-09, cumulative = -5.58285e-06
ExecutionTime = 0.22 s  ClockTime = 1 s

fieldMinMax continuityError write:
    min(divPhi) = -0.000218983 in cell 5103 at location (0.035 0.515 0.005)
    max(divPhi) = 0.000276559 in cell 5202 at location (0.025 0.525 0.005)

Courant Number mean: 3.20074e-07 max: 1.74682e-05
Interface Courant Number mean: 0 max: 0
Time = 0.8

PIMPLE: iteration 1
smoothSolver:  Solving for alpha.grout, Initial residual = 7.61934e-09, Final residual = 7.61934e-09, No Iterations 0
Phase-1 volume fraction = 0.5  Min(alpha.grout) = -7.17465e-38  Max(alpha.grout) = 1
MULES: Correcting alpha.grout
MULES: Correcting alpha.grout
Phase-1 volume fraction = 0.5  Min(alpha.grout) = -7.17465e-38  Max(alpha.grout) = 1
DICPCG:  Solving for p_rgh, Initial residual = 1.43085e-07, Final residual = 8.3101e-08, No Iterations 41
time step continuity errors : sum local = 3.20746e-07, global = 3.70131e-09, cumulative = -5.57915e-06
DICPCG:  Solving for p_rgh, Initial residual = 8.15599e-08, Final residual = 8.15599e-08, No Iterations 0
time step continuity errors : sum local = 3.26352e-07, global = 3.70131e-09, cumulative = -5.57545e-06
DICPCG:  Solving for p_rgh, Initial residual = 8.30179e-08, Final residual = 8.30179e-08, No Iterations 0
time step continuity errors : sum local = 3.32186e-07, global = 3.70131e-09, cumulative = -5.57174e-06
ExecutionTime = 0.24 s  ClockTime = 1 s

fieldMinMax continuityError write:
    min(divPhi) = -0.000117024 in cell 5302 at location (0.025 0.535 0.005)
    max(divPhi) = 0.000167521 in cell 5298 at location (0.985 0.525 0.005)

Courant Number mean: 3.42962e-07 max: 1.25653e-05
Interface Courant Number mean: 0 max: 0
Time = 0.9

PIMPLE: iteration 1
smoothSolver:  Solving for alpha.grout, Initial residual = 1.32522e-08, Final residual = 3.37899e-17, No Iterations 1
Phase-1 volume fraction = 0.5  Min(alpha.grout) = -6.71971e-43  Max(alpha.grout) = 1
MULES: Correcting alpha.grout
MULES: Correcting alpha.grout
Phase-1 volume fraction = 0.5  Min(alpha.grout) = -6.71971e-43  Max(alpha.grout) = 1
DICPCG:  Solving for p_rgh, Initial residual = 1.66063e-07, Final residual = 9.98916e-08, No Iterations 42
time step continuity errors : sum local = 3.99703e-07, global = 3.75691e-09, cumulative = -5.56799e-06
DICPCG:  Solving for p_rgh, Initial residual = 1.1149e-07, Final residual = 9.93636e-08, No Iterations 26
time step continuity errors : sum local = 3.65761e-07, global = -3.7854e-09, cumulative = -5.57177e-06
DICPCG:  Solving for p_rgh, Initial residual = 9.56386e-08, Final residual = 9.56386e-08, No Iterations 0
time step continuity errors : sum local = 3.66918e-07, global = -3.7854e-09, cumulative = -5.57556e-06
ExecutionTime = 0.26 s  ClockTime = 1 s

fieldMinMax continuityError write:
    min(divPhi) = -0.000876879 in cell 5201 at location (0.015 0.525 0.005)
    max(divPhi) = 0.000606599 in cell 5300 at location (0.005 0.535 0.005)

Courant Number mean: 3.27641e-07 max: 4.3844e-05
Interface Courant Number mean: 0 max: 0
Time = 1

PIMPLE: iteration 1
smoothSolver:  Solving for alpha.grout, Initial residual = 3.12763e-09, Final residual = 3.12763e-09, No Iterations 0
Phase-1 volume fraction = 0.5  Min(alpha.grout) = -6.71971e-43  Max(alpha.grout) = 1
MULES: Correcting alpha.grout
MULES: Correcting alpha.grout
Phase-1 volume fraction = 0.5  Min(alpha.grout) = -6.31089e-31  Max(alpha.grout) = 1
DICPCG:  Solving for p_rgh, Initial residual = 1.64041e-07, Final residual = 9.60911e-08, No Iterations 26
time step continuity errors : sum local = 3.68654e-07, global = -5.25765e-09, cumulative = -5.58082e-06
DICPCG:  Solving for p_rgh, Initial residual = 9.1872e-08, Final residual = 9.1872e-08, No Iterations 0
time step continuity errors : sum local = 3.70279e-07, global = -5.25765e-09, cumulative = -5.58607e-06
DICPCG:  Solving for p_rgh, Initial residual = 9.23026e-08, Final residual = 9.23026e-08, No Iterations 0
time step continuity errors : sum local = 3.72015e-07, global = -5.25765e-09, cumulative = -5.59133e-06
ExecutionTime = 0.3 s  ClockTime = 1 s

fieldMinMax continuityError write:
    min(divPhi) = -0.000468896 in cell 5298 at location (0.985 0.525 0.005)
    max(divPhi) = 0.000263152 in cell 5396 at location (0.965 0.535 0.005)

Courant Number mean: 3.55459e-07 max: 2.34448e-05
Interface Courant Number mean: 0 max: 0
Time = 1.1

PIMPLE: iteration 1
smoothSolver:  Solving for alpha.grout, Initial residual = 5.09579e-09, Final residual = 5.09579e-09, No Iterations 0
Phase-1 volume fraction = 0.5  Min(alpha.grout) = -6.31089e-31  Max(alpha.grout) = 1
MULES: Correcting alpha.grout
MULES: Correcting alpha.grout
Phase-1 volume fraction = 0.5  Min(alpha.grout) = -1.00974e-29  Max(alpha.grout) = 1
DICPCG:  Solving for p_rgh, Initial residual = 1.49956e-07, Final residual = 8.45243e-08, No Iterations 41
time step continuity errors : sum local = 3.40665e-07, global = 2.66786e-09, cumulative = -5.58866e-06
DICPCG:  Solving for p_rgh, Initial residual = 9.45081e-08, Final residual = 9.45081e-08, No Iterations 0
time step continuity errors : sum local = 3.44121e-07, global = 2.66786e-09, cumulative = -5.586e-06
DICPCG:  Solving for p_rgh, Initial residual = 9.55234e-08, Final residual = 9.55234e-08, No Iterations 0
time step continuity errors : sum local = 3.47818e-07, global = 2.66786e-09, cumulative = -5.58333e-06
ExecutionTime = 0.32 s  ClockTime = 1 s

fieldMinMax continuityError write:
    min(divPhi) = -0.000550043 in cell 5201 at location (0.015 0.525 0.005)
    max(divPhi) = 0.000379808 in cell 5300 at location (0.005 0.535 0.005)

Courant Number mean: 3.85352e-07 max: 2.75021e-05
Interface Courant Number mean: 0 max: 0
Time = 1.2

PIMPLE: iteration 1
smoothSolver:  Solving for alpha.grout, Initial residual = 8.78712e-09, Final residual = 8.78712e-09, No Iterations 0
Phase-1 volume fraction = 0.5  Min(alpha.grout) = -1.00974e-29  Max(alpha.grout) = 1
MULES: Correcting alpha.grout
MULES: Correcting alpha.grout
Phase-1 volume fraction = 0.5  Min(alpha.grout) = -1.00974e-29  Max(alpha.grout) = 1
DICPCG:  Solving for p_rgh, Initial residual = 1.47513e-07, Final residual = 6.8467e-08, No Iterations 47
time step continuity errors : sum local = 2.493e-07, global = 1.05852e-10, cumulative = -5.58322e-06
DICPCG:  Solving for p_rgh, Initial residual = 5.68504e-08, Final residual = 5.68504e-08, No Iterations 0
time step continuity errors : sum local = 2.56285e-07, global = 1.05852e-10, cumulative = -5.58312e-06
DICPCG:  Solving for p_rgh, Initial residual = 5.84261e-08, Final residual = 5.84261e-08, No Iterations 0
time step continuity errors : sum local = 2.63389e-07, global = 1.05852e-10, cumulative = -5.58301e-06
ExecutionTime = 0.34 s  ClockTime = 1 s

fieldMinMax continuityError write:
    min(divPhi) = -0.000112594 in cell 5305 at location (0.055 0.535 0.005)
    max(divPhi) = 0.000114743 in cell 5404 at location (0.045 0.545 0.005)

Courant Number mean: 4.34419e-07 max: 9.31901e-06
Interface Courant Number mean: 0 max: 0
Time = 1.3

PIMPLE: iteration 1
smoothSolver:  Solving for alpha.grout, Initial residual = 1.60948e-08, Final residual = 3.43941e-17, No Iterations 1
Phase-1 volume fraction = 0.5  Min(alpha.grout) = -5.43359e-31  Max(alpha.grout) = 1
MULES: Correcting alpha.grout
MULES: Correcting alpha.grout
Phase-1 volume fraction = 0.5  Min(alpha.grout) = -3.55338e-31  Max(alpha.grout) = 1
DICPCG:  Solving for p_rgh, Initial residual = 1.36946e-07, Final residual = 7.9548e-08, No Iterations 47
time step continuity errors : sum local = 3.58607e-07, global = 1.41453e-09, cumulative = -5.5816e-06
DICPCG:  Solving for p_rgh, Initial residual = 1.4704e-07, Final residual = 9.61446e-08, No Iterations 48
time step continuity errors : sum local = 2.42964e-07, global = -1.06189e-09, cumulative = -5.58266e-06
DICPCG:  Solving for p_rgh, Initial residual = 6.27356e-08, Final residual = 6.27356e-08, No Iterations 0
time step continuity errors : sum local = 2.43822e-07, global = -1.06189e-09, cumulative = -5.58372e-06
ExecutionTime = 0.36 s  ClockTime = 1 s

fieldMinMax continuityError write:
    min(divPhi) = -0.000246988 in cell 5201 at location (0.015 0.525 0.005)
    max(divPhi) = 0.000187923 in cell 5300 at location (0.005 0.535 0.005)

Courant Number mean: 2.15138e-07 max: 1.38738e-05
Interface Courant Number mean: 0 max: 0
Time = 1.4

PIMPLE: iteration 1
smoothSolver:  Solving for alpha.grout, Initial residual = 1.4671e-09, Final residual = 1.4671e-09, No Iterations 0
Phase-1 volume fraction = 0.5  Min(alpha.grout) = -3.55338e-31  Max(alpha.grout) = 1
MULES: Correcting alpha.grout
MULES: Correcting alpha.grout
Phase-1 volume fraction = 0.5  Min(alpha.grout) = -2.52435e-30  Max(alpha.grout) = 1
DICPCG:  Solving for p_rgh, Initial residual = 1.14523e-07, Final residual = 9.4758e-08, No Iterations 8
time step continuity errors : sum local = 3.68277e-07, global = -7.86399e-10, cumulative = -5.58451e-06
DICPCG:  Solving for p_rgh, Initial residual = 9.47684e-08, Final residual = 9.47684e-08, No Iterations 0
time step continuity errors : sum local = 3.69105e-07, global = -7.86399e-10, cumulative = -5.58529e-06
DICPCG:  Solving for p_rgh, Initial residual = 9.49941e-08, Final residual = 9.49941e-08, No Iterations 0
time step continuity errors : sum local = 3.69984e-07, global = -7.86399e-10, cumulative = -5.58608e-06
ExecutionTime = 0.37 s  ClockTime = 1 s

fieldMinMax continuityError write:
    min(divPhi) = -0.000706776 in cell 5201 at location (0.015 0.525 0.005)
    max(divPhi) = 0.000541913 in cell 5300 at location (0.005 0.535 0.005)

Courant Number mean: 3.04997e-07 max: 3.53388e-05
Interface Courant Number mean: 0 max: 0
Time = 1.5

PIMPLE: iteration 1
smoothSolver:  Solving for alpha.grout, Initial residual = 2.43051e-09, Final residual = 2.43051e-09, No Iterations 0
Phase-1 volume fraction = 0.5  Min(alpha.grout) = -2.52435e-30  Max(alpha.grout) = 1
MULES: Correcting alpha.grout
MULES: Correcting alpha.grout
Phase-1 volume fraction = 0.5  Min(alpha.grout) = -2.52435e-30  Max(alpha.grout) = 1
DICPCG:  Solving for p_rgh, Initial residual = 1.46491e-07, Final residual = 8.32489e-08, No Iterations 4
time step continuity errors : sum local = 3.24239e-07, global = -1.62391e-09, cumulative = -5.5877e-06
DICPCG:  Solving for p_rgh, Initial residual = 8.36537e-08, Final residual = 8.36537e-08, No Iterations 0
time step continuity errors : sum local = 3.25865e-07, global = -1.62391e-09, cumulative = -5.58933e-06
DICPCG:  Solving for p_rgh, Initial residual = 8.41319e-08, Final residual = 8.41319e-08, No Iterations 0
time step continuity errors : sum local = 3.27728e-07, global = -1.62391e-09, cumulative = -5.59095e-06
ExecutionTime = 0.39 s  ClockTime = 1 s

fieldMinMax continuityError write:
    min(divPhi) = -0.00192649 in cell 5201 at location (0.015 0.525 0.005)
    max(divPhi) = 0.00138446 in cell 5300 at location (0.005 0.535 0.005)

Courant Number mean: 3.09049e-07 max: 9.63245e-05
Interface Courant Number mean: 0 max: 0
Time = 1.6

PIMPLE: iteration 1
smoothSolver:  Solving for alpha.grout, Initial residual = 4.76863e-09, Final residual = 4.76863e-09, No Iterations 0
Phase-1 volume fraction = 0.5  Min(alpha.grout) = -2.52435e-30  Max(alpha.grout) = 1
MULES: Correcting alpha.grout
MULES: Correcting alpha.grout
Phase-1 volume fraction = 0.5  Min(alpha.grout) = -2.52435e-30  Max(alpha.grout) = 1
DICPCG:  Solving for p_rgh, Initial residual = 1.21605e-07, Final residual = 9.61284e-08, No Iterations 4
time step continuity errors : sum local = 3.7446e-07, global = -3.40994e-10, cumulative = -5.59129e-06
DICPCG:  Solving for p_rgh, Initial residual = 9.69442e-08, Final residual = 9.69442e-08, No Iterations 0
time step continuity errors : sum local = 3.77802e-07, global = -3.40994e-10, cumulative = -5.59163e-06
DICPCG:  Solving for p_rgh, Initial residual = 9.79257e-08, Final residual = 9.79257e-08, No Iterations 0
time step continuity errors : sum local = 3.81626e-07, global = -3.40994e-10, cumulative = -5.59197e-06
ExecutionTime = 0.4 s  ClockTime = 1 s

fieldMinMax continuityError write:
    min(divPhi) = -0.00315143 in cell 5201 at location (0.015 0.525 0.005)
    max(divPhi) = 0.00245944 in cell 5300 at location (0.005 0.535 0.005)

Courant Number mean: 3.77237e-07 max: 0.000157571
Interface Courant Number mean: 0 max: 0
Time = 1.7

PIMPLE: iteration 1
smoothSolver:  Solving for alpha.grout, Initial residual = 9.0868e-09, Final residual = 9.0868e-09, No Iterations 0
Phase-1 volume fraction = 0.5  Min(alpha.grout) = -2.52435e-30  Max(alpha.grout) = 1
MULES: Correcting alpha.grout
MULES: Correcting alpha.grout
Phase-1 volume fraction = 0.5  Min(alpha.grout) = -2.52435e-30  Max(alpha.grout) = 1
DICPCG:  Solving for p_rgh, Initial residual = 1.32056e-07, Final residual = 5.54376e-08, No Iterations 6
time step continuity errors : sum local = 2.16046e-07, global = -1.01609e-09, cumulative = -5.59299e-06
DICPCG:  Solving for p_rgh, Initial residual = 5.71707e-08, Final residual = 5.71707e-08, No Iterations 0
time step continuity errors : sum local = 2.23129e-07, global = -1.01609e-09, cumulative = -5.59401e-06
DICPCG:  Solving for p_rgh, Initial residual = 5.9148e-08, Final residual = 5.9148e-08, No Iterations 0
time step continuity errors : sum local = 2.30846e-07, global = -1.01609e-09, cumulative = -5.59502e-06
ExecutionTime = 0.41 s  ClockTime = 1 s

fieldMinMax continuityError write:
    min(divPhi) = -0.00204507 in cell 5201 at location (0.015 0.525 0.005)
    max(divPhi) = 0.00156248 in cell 5300 at location (0.005 0.535 0.005)

Courant Number mean: 2.86729e-07 max: 0.000105577
Interface Courant Number mean: 0 max: 0
Time = 1.8

PIMPLE: iteration 1
smoothSolver:  Solving for alpha.grout, Initial residual = 1.65551e-08, Final residual = 3.41099e-17, No Iterations 1
Phase-1 volume fraction = 0.5  Min(alpha.grout) = -1.26218e-30  Max(alpha.grout) = 1
MULES: Correcting alpha.grout
MULES: Correcting alpha.grout
Phase-1 volume fraction = 0.5  Min(alpha.grout) = -1.26218e-30  Max(alpha.grout) = 1
DICPCG:  Solving for p_rgh, Initial residual = 1.0821e-07, Final residual = 9.7144e-08, No Iterations 7
time step continuity errors : sum local = 3.7914e-07, global = -7.74276e-10, cumulative = -5.5958e-06
DICPCG:  Solving for p_rgh, Initial residual = 1.00534e-07, Final residual = 8.76749e-08, No Iterations 6
time step continuity errors : sum local = 3.42827e-07, global = -6.11249e-10, cumulative = -5.59641e-06
DICPCG:  Solving for p_rgh, Initial residual = 8.79107e-08, Final residual = 8.79107e-08, No Iterations 0
time step continuity errors : sum local = 3.44329e-07, global = -6.11249e-10, cumulative = -5.59702e-06
ExecutionTime = 0.43 s  ClockTime = 1 s

fieldMinMax continuityError write:
    min(divPhi) = -0.00288672 in cell 5300 at location (0.005 0.535 0.005)
    max(divPhi) = 0.00367169 in cell 5201 at location (0.015 0.525 0.005)

Courant Number mean: 3.18502e-07 max: 0.000183584
Interface Courant Number mean: 0 max: 0
Time = 1.9

PIMPLE: iteration 1
smoothSolver:  Solving for alpha.grout, Initial residual = 3.21371e-09, Final residual = 3.21371e-09, No Iterations 0
Phase-1 volume fraction = 0.5  Min(alpha.grout) = -1.26218e-30  Max(alpha.grout) = 1
MULES: Correcting alpha.grout
MULES: Correcting alpha.grout
Phase-1 volume fraction = 0.5  Min(alpha.grout) = -5.04847e-30  Max(alpha.grout) = 1
DICPCG:  Solving for p_rgh, Initial residual = 1.69442e-07, Final residual = 8.93036e-08, No Iterations 4
time step continuity errors : sum local = 3.49785e-07, global = -4.39611e-11, cumulative = -5.59706e-06
DICPCG:  Solving for p_rgh, Initial residual = 8.97487e-08, Final residual = 8.97487e-08, No Iterations 0
time step continuity errors : sum local = 3.51858e-07, global = -4.39611e-11, cumulative = -5.59711e-06
DICPCG:  Solving for p_rgh, Initial residual = 9.02936e-08, Final residual = 9.02936e-08, No Iterations 0
time step continuity errors : sum local = 3.53995e-07, global = -4.39611e-11, cumulative = -5.59715e-06
ExecutionTime = 0.45 s  ClockTime = 1 s

fieldMinMax continuityError write:
    min(divPhi) = -0.00228856 in cell 5300 at location (0.005 0.535 0.005)
    max(divPhi) = 0.00363645 in cell 5201 at location (0.015 0.525 0.005)

Courant Number mean: 3.25527e-07 max: 0.000181822
Interface Courant Number mean: 0 max: 0
Time = 2

PIMPLE: iteration 1
smoothSolver:  Solving for alpha.grout, Initial residual = 5.6081e-09, Final residual = 5.6081e-09, No Iterations 0
Phase-1 volume fraction = 0.5  Min(alpha.grout) = -5.04847e-30  Max(alpha.grout) = 1
MULES: Correcting alpha.grout
MULES: Correcting alpha.grout
Phase-1 volume fraction = 0.5  Min(alpha.grout) = -5.04847e-30  Max(alpha.grout) = 1
DICPCG:  Solving for p_rgh, Initial residual = 1.38748e-07, Final residual = 9.11114e-08, No Iterations 4
time step continuity errors : sum local = 3.57201e-07, global = 4.73581e-11, cumulative = -5.5971e-06
DICPCG:  Solving for p_rgh, Initial residual = 9.21754e-08, Final residual = 9.21754e-08, No Iterations 0
time step continuity errors : sum local = 3.61237e-07, global = 4.73581e-11, cumulative = -5.59706e-06
DICPCG:  Solving for p_rgh, Initial residual = 9.32643e-08, Final residual = 9.32643e-08, No Iterations 0
time step continuity errors : sum local = 3.65504e-07, global = 4.73581e-11, cumulative = -5.59701e-06
ExecutionTime = 0.49 s  ClockTime = 1 s

fieldMinMax continuityError write:
    min(divPhi) = -0.00452246 in cell 5300 at location (0.005 0.535 0.005)
    max(divPhi) = 0.00501135 in cell 5201 at location (0.015 0.525 0.005)

Courant Number mean: 3.59959e-07 max: 0.000250568
Interface Courant Number mean: 0 max: 0
Time = 2.1

PIMPLE: iteration 1
smoothSolver:  Solving for alpha.grout, Initial residual = 9.91986e-09, Final residual = 9.91986e-09, No Iterations 0
Phase-1 volume fraction = 0.5  Min(alpha.grout) = -5.04847e-30  Max(alpha.grout) = 1
MULES: Correcting alpha.grout
MULES: Correcting alpha.grout
Phase-1 volume fraction = 0.5  Min(alpha.grout) = -5.04847e-30  Max(alpha.grout) = 1
DICPCG:  Solving for p_rgh, Initial residual = 1.42659e-07, Final residual = 6.72582e-08, No Iterations 4
time step continuity errors : sum local = 2.63586e-07, global = 2.84066e-10, cumulative = -5.59672e-06
DICPCG:  Solving for p_rgh, Initial residual = 6.90291e-08, Final residual = 6.90291e-08, No Iterations 0
time step continuity errors : sum local = 2.70941e-07, global = 2.84066e-10, cumulative = -5.59644e-06
DICPCG:  Solving for p_rgh, Initial residual = 7.10403e-08, Final residual = 7.10403e-08, No Iterations 0
time step continuity errors : sum local = 2.78835e-07, global = 2.84066e-10, cumulative = -5.59616e-06
ExecutionTime = 0.51 s  ClockTime = 1 s

fieldMinMax continuityError write:
    min(divPhi) = -0.00289436 in cell 5300 at location (0.005 0.535 0.005)
    max(divPhi) = 0.00391772 in cell 5201 at location (0.015 0.525 0.005)

Courant Number mean: 3.06337e-07 max: 0.000195886
Interface Courant Number mean: 0 max: 0
Time = 2.2

PIMPLE: iteration 1
smoothSolver:  Solving for alpha.grout, Initial residual = 1.76016e-08, Final residual = 3.42702e-17, No Iterations 1
Phase-1 volume fraction = 0.5  Min(alpha.grout) = -1.26218e-30  Max(alpha.grout) = 1
MULES: Correcting alpha.grout
MULES: Correcting alpha.grout
Phase-1 volume fraction = 0.5  Min(alpha.grout) = -1.26218e-30  Max(alpha.grout) = 1
DICPCG:  Solving for p_rgh, Initial residual = 9.66503e-08, Final residual = 9.66503e-08, No Iterations 0
time step continuity errors : sum local = 3.79355e-07, global = 2.84065e-10, cumulative = -5.59587e-06
DICPCG:  Solving for p_rgh, Initial residual = 9.82185e-08, Final residual = 9.82185e-08, No Iterations 0
time step continuity errors : sum local = 3.8551e-07, global = 2.84065e-10, cumulative = -5.59559e-06
DICPCG:  Solving for p_rgh, Initial residual = 9.97173e-08, Final residual = 9.97173e-08, No Iterations 0
time step continuity errors : sum local = 3.91393e-07, global = 2.84065e-10, cumulative = -5.5953e-06
ExecutionTime = 0.53 s  ClockTime = 1 s

fieldMinMax continuityError write:
    min(divPhi) = -0.00185314 in cell 5300 at location (0.005 0.535 0.005)
    max(divPhi) = 0.00376648 in cell 5201 at location (0.015 0.525 0.005)

Courant Number mean: 4.55423e-07 max: 0.000188324
Interface Courant Number mean: 0 max: 0
Time = 2.3

PIMPLE: iteration 1
smoothSolver:  Solving for alpha.grout, Initial residual = 3.75481e-08, Final residual = 3.4179e-17, No Iterations 1
Phase-1 volume fraction = 0.5  Min(alpha.grout) = -1.26216e-30  Max(alpha.grout) = 1
MULES: Correcting alpha.grout
MULES: Correcting alpha.grout
Phase-1 volume fraction = 0.5  Min(alpha.grout) = -1.26216e-30  Max(alpha.grout) = 1
DICPCG:  Solving for p_rgh, Initial residual = 1.41502e-07, Final residual = 5.24843e-08, No Iterations 6
time step continuity errors : sum local = 2.06002e-07, global = 6.25273e-10, cumulative = -5.59468e-06
DICPCG:  Solving for p_rgh, Initial residual = 6.09044e-08, Final residual = 6.09044e-08, No Iterations 0
time step continuity errors : sum local = 2.37618e-07, global = 6.25273e-10, cumulative = -5.59405e-06
DICPCG:  Solving for p_rgh, Initial residual = 6.90763e-08, Final residual = 6.90763e-08, No Iterations 0
time step continuity errors : sum local = 2.69501e-07, global = 6.25273e-10, cumulative = -5.59343e-06
ExecutionTime = 0.54 s  ClockTime = 1 s

fieldMinMax continuityError write:
    min(divPhi) = -0.00186464 in cell 5300 at location (0.005 0.535 0.005)
    max(divPhi) = 0.00249794 in cell 5201 at location (0.015 0.525 0.005)

Courant Number mean: 4.73464e-07 max: 0.000150802
Interface Courant Number mean: 0 max: 0
Time = 2.4

PIMPLE: iteration 1
smoothSolver:  Solving for alpha.grout, Initial residual = 6.65763e-08, Final residual = 3.40765e-17, No Iterations 1
Phase-1 volume fraction = 0.5  Min(alpha.grout) = -1.26216e-30  Max(alpha.grout) = 1
MULES: Correcting alpha.grout
MULES: Correcting alpha.grout
Phase-1 volume fraction = 0.5  Min(alpha.grout) = -1.26216e-30  Max(alpha.grout) = 1
DICPCG:  Solving for p_rgh, Initial residual = 1.28533e-07, Final residual = 8.89839e-08, No Iterations 6
time step continuity errors : sum local = 3.4717e-07, global = 6.30458e-10, cumulative = -5.5928e-06
DICPCG:  Solving for p_rgh, Initial residual = 1.01975e-07, Final residual = 5.94034e-08, No Iterations 7
time step continuity errors : sum local = 2.34178e-07, global = 5.60793e-10, cumulative = -5.59224e-06
DICPCG:  Solving for p_rgh, Initial residual = 6.0756e-08, Final residual = 6.0756e-08, No Iterations 0
time step continuity errors : sum local = 2.37352e-07, global = 5.60793e-10, cumulative = -5.59168e-06
ExecutionTime = 0.56 s  ClockTime = 1 s

fieldMinMax continuityError write:
    min(divPhi) = -0.00410753 in cell 5201 at location (0.015 0.525 0.005)
    max(divPhi) = 0.00352031 in cell 5300 at location (0.005 0.535 0.005)

Courant Number mean: 2.5604e-07 max: 0.000205377
Interface Courant Number mean: 0 max: 0
Time = 2.5

PIMPLE: iteration 1
smoothSolver:  Solving for alpha.grout, Initial residual = 4.73186e-09, Final residual = 4.73186e-09, No Iterations 0
Phase-1 volume fraction = 0.5  Min(alpha.grout) = -1.26216e-30  Max(alpha.grout) = 1
MULES: Correcting alpha.grout
MULES: Correcting alpha.grout
Phase-1 volume fraction = 0.5  Min(alpha.grout) = -1.26216e-30  Max(alpha.grout) = 1
DICPCG:  Solving for p_rgh, Initial residual = 1.34462e-07, Final residual = 5.73451e-08, No Iterations 5
time step continuity errors : sum local = 2.24027e-07, global = 5.00332e-10, cumulative = -5.59118e-06
DICPCG:  Solving for p_rgh, Initial residual = 5.81217e-08, Final residual = 5.81217e-08, No Iterations 0
time step continuity errors : sum local = 2.26775e-07, global = 5.00332e-10, cumulative = -5.59067e-06
DICPCG:  Solving for p_rgh, Initial residual = 5.88615e-08, Final residual = 5.88615e-08, No Iterations 0
time step continuity errors : sum local = 2.29662e-07, global = 5.00332e-10, cumulative = -5.59017e-06
ExecutionTime = 0.57 s  ClockTime = 1 s

fieldMinMax continuityError write:
    min(divPhi) = -0.00230196 in cell 5300 at location (0.005 0.535 0.005)
    max(divPhi) = 0.00274949 in cell 5201 at location (0.015 0.525 0.005)

Courant Number mean: 2.3517e-07 max: 0.000137474
Interface Courant Number mean: 0 max: 0
Time = 2.6

PIMPLE: iteration 1
smoothSolver:  Solving for alpha.grout, Initial residual = 6.84208e-09, Final residual = 6.84208e-09, No Iterations 0
Phase-1 volume fraction = 0.5  Min(alpha.grout) = -1.26216e-30  Max(alpha.grout) = 1
MULES: Correcting alpha.grout
MULES: Correcting alpha.grout
Phase-1 volume fraction = 0.5  Min(alpha.grout) = -1.26216e-30  Max(alpha.grout) = 1
DICPCG:  Solving for p_rgh, Initial residual = 1.17181e-07, Final residual = 8.91829e-08, No Iterations 5
time step continuity errors : sum local = 3.47968e-07, global = 5.29678e-10, cumulative = -5.58964e-06
DICPCG:  Solving for p_rgh, Initial residual = 9.04737e-08, Final residual = 9.04737e-08, No Iterations 0
time step continuity errors : sum local = 3.52917e-07, global = 5.29678e-10, cumulative = -5.58912e-06
DICPCG:  Solving for p_rgh, Initial residual = 9.18093e-08, Final residual = 9.18093e-08, No Iterations 0
time step continuity errors : sum local = 3.58127e-07, global = 5.29678e-10, cumulative = -5.58859e-06
ExecutionTime = 0.58 s  ClockTime = 1 s

fieldMinMax continuityError write:
    min(divPhi) = -0.00441531 in cell 5201 at location (0.015 0.525 0.005)
    max(divPhi) = 0.00319288 in cell 5300 at location (0.005 0.535 0.005)

Courant Number mean: 3.86077e-07 max: 0.000220766
Interface Courant Number mean: 0 max: 0
Time = 2.7

PIMPLE: iteration 1
smoothSolver:  Solving for alpha.grout, Initial residual = 1.17205e-08, Final residual = 3.37712e-17, No Iterations 1
Phase-1 volume fraction = 0.5  Min(alpha.grout) = -2.1843e-117  Max(alpha.grout) = 1
MULES: Correcting alpha.grout
MULES: Correcting alpha.grout
Phase-1 volume fraction = 0.5  Min(alpha.grout) = -2.1843e-117  Max(alpha.grout) = 1
DICPCG:  Solving for p_rgh, Initial residual = 1.67981e-07, Final residual = 7.46742e-08, No Iterations 6
time step continuity errors : sum local = 2.91287e-07, global = 1.01843e-09, cumulative = -5.58757e-06
DICPCG:  Solving for p_rgh, Initial residual = 7.72086e-08, Final residual = 7.72086e-08, No Iterations 0
time step continuity errors : sum local = 3.00125e-07, global = 1.01843e-09, cumulative = -5.58655e-06
DICPCG:  Solving for p_rgh, Initial residual = 7.95294e-08, Final residual = 7.95294e-08, No Iterations 0
time step continuity errors : sum local = 3.09146e-07, global = 1.01843e-09, cumulative = -5.58553e-06
ExecutionTime = 0.6 s  ClockTime = 1 s

fieldMinMax continuityError write:
    min(divPhi) = -0.00281439 in cell 5201 at location (0.015 0.525 0.005)
    max(divPhi) = 0.0024236 in cell 5300 at location (0.005 0.535 0.005)

Courant Number mean: 3.61168e-07 max: 0.000140719
Interface Courant Number mean: 0 max: 0
Time = 2.8

PIMPLE: iteration 1
smoothSolver:  Solving for alpha.grout, Initial residual = 1.98974e-08, Final residual = 3.42831e-17, No Iterations 1
Phase-1 volume fraction = 0.5  Min(alpha.grout) = -3.0944e-162  Max(alpha.grout) = 1
MULES: Correcting alpha.grout
MULES: Correcting alpha.grout
Phase-1 volume fraction = 0.5  Min(alpha.grout) = -3.0944e-162  Max(alpha.grout) = 1
DICPCG:  Solving for p_rgh, Initial residual = 1.3793e-07, Final residual = 7.95946e-08, No Iterations 7
time step continuity errors : sum local = 3.09399e-07, global = 9.50786e-10, cumulative = -5.58458e-06
DICPCG:  Solving for p_rgh, Initial residual = 8.34907e-08, Final residual = 8.34907e-08, No Iterations 0
time step continuity errors : sum local = 3.25487e-07, global = 9.50786e-10, cumulative = -5.58363e-06
DICPCG:  Solving for p_rgh, Initial residual = 8.76332e-08, Final residual = 8.76332e-08, No Iterations 0
time step continuity errors : sum local = 3.41636e-07, global = 9.50786e-10, cumulative = -5.58268e-06
ExecutionTime = 0.63 s  ClockTime = 1 s

fieldMinMax continuityError write:
    min(divPhi) = -0.00278463 in cell 5300 at location (0.005 0.535 0.005)
    max(divPhi) = 0.00315497 in cell 5201 at location (0.015 0.525 0.005)

Courant Number mean: 4.50577e-07 max: 0.000157749
Interface Courant Number mean: 0 max: 0
Time = 2.9

PIMPLE: iteration 1
smoothSolver:  Solving for alpha.grout, Initial residual = 3.49813e-08, Final residual = 3.36793e-17, No Iterations 1
Phase-1 volume fraction = 0.5  Min(alpha.grout) = -3.0944e-162  Max(alpha.grout) = 1
MULES: Correcting alpha.grout
MULES: Correcting alpha.grout
Phase-1 volume fraction = 0.5  Min(alpha.grout) = -3.0944e-162  Max(alpha.grout) = 1
DICPCG:  Solving for p_rgh, Initial residual = 1.54287e-07, Final residual = 8.65118e-08, No Iterations 8
time step continuity errors : sum local = 3.37264e-07, global = 9.70305e-10, cumulative = -5.58171e-06
DICPCG:  Solving for p_rgh, Initial residual = 9.49307e-08, Final residual = 9.49307e-08, No Iterations 0
time step continuity errors : sum local = 3.67397e-07, global = 9.70305e-10, cumulative = -5.58074e-06
DICPCG:  Solving for p_rgh, Initial residual = 1.02527e-07, Final residual = 7.3567e-08, No Iterations 8
time step continuity errors : sum local = 2.84716e-07, global = 9.25708e-10, cumulative = -5.57981e-06
ExecutionTime = 0.65 s  ClockTime = 1 s

fieldMinMax continuityError write:
    min(divPhi) = -0.00438295 in cell 5300 at location (0.005 0.535 0.005)
    max(divPhi) = 0.00483982 in cell 5201 at location (0.015 0.525 0.005)

Courant Number mean: 2.80072e-07 max: 0.000244816
Interface Courant Number mean: 0 max: 0
Time = 3

PIMPLE: iteration 1
smoothSolver:  Solving for alpha.grout, Initial residual = 1.5298e-09, Final residual = 1.5298e-09, No Iterations 0
Phase-1 volume fraction = 0.5  Min(alpha.grout) = -3.0944e-162  Max(alpha.grout) = 1
MULES: Correcting alpha.grout
MULES: Correcting alpha.grout
Phase-1 volume fraction = 0.5  Min(alpha.grout) = -3.0944e-162  Max(alpha.grout) = 1
DICPCG:  Solving for p_rgh, Initial residual = 1.33159e-07, Final residual = 5.63242e-08, No Iterations 7
time step continuity errors : sum local = 2.19598e-07, global = 8.36411e-10, cumulative = -5.57898e-06
DICPCG:  Solving for p_rgh, Initial residual = 5.69613e-08, Final residual = 5.69613e-08, No Iterations 0
time step continuity errors : sum local = 2.21244e-07, global = 8.36411e-10, cumulative = -5.57814e-06
DICPCG:  Solving for p_rgh, Initial residual = 5.73589e-08, Final residual = 5.73589e-08, No Iterations 0
time step continuity errors : sum local = 2.22788e-07, global = 8.36411e-10, cumulative = -5.5773e-06
ExecutionTime = 0.69 s  ClockTime = 1 s

fieldMinMax continuityError write:
    min(divPhi) = -0.00356939 in cell 5201 at location (0.015 0.525 0.005)
    max(divPhi) = 0.00319392 in cell 5300 at location (0.005 0.535 0.005)

Courant Number mean: 2.38861e-07 max: 0.00017847
Interface Courant Number mean: 0 max: 0
Time = 3.1

PIMPLE: iteration 1
smoothSolver:  Solving for alpha.grout, Initial residual = 4.07286e-09, Final residual = 4.07286e-09, No Iterations 0
Phase-1 volume fraction = 0.5  Min(alpha.grout) = -3.0944e-162  Max(alpha.grout) = 1
MULES: Correcting alpha.grout
MULES: Correcting alpha.grout
Phase-1 volume fraction = 0.5  Min(alpha.grout) = -3.0944e-162  Max(alpha.grout) = 1
DICPCG:  Solving for p_rgh, Initial residual = 1.43403e-07, Final residual = 6.39442e-08, No Iterations 5
time step continuity errors : sum local = 2.48367e-07, global = 6.90457e-10, cumulative = -5.57661e-06
DICPCG:  Solving for p_rgh, Initial residual = 6.45217e-08, Final residual = 6.45217e-08, No Iterations 0
time step continuity errors : sum local = 2.51053e-07, global = 6.90457e-10, cumulative = -5.57592e-06
DICPCG:  Solving for p_rgh, Initial residual = 6.5269e-08, Final residual = 6.5269e-08, No Iterations 0
time step continuity errors : sum local = 2.53961e-07, global = 6.90457e-10, cumulative = -5.57523e-06
ExecutionTime = 0.71 s  ClockTime = 1 s

fieldMinMax continuityError write:
    min(divPhi) = -0.00242197 in cell 5300 at location (0.005 0.535 0.005)
    max(divPhi) = 0.00369124 in cell 5201 at location (0.015 0.525 0.005)

Courant Number mean: 2.46692e-07 max: 0.000184562
Interface Courant Number mean: 0 max: 0
Time = 3.2

PIMPLE: iteration 1
smoothSolver:  Solving for alpha.grout, Initial residual = 6.75687e-09, Final residual = 6.75687e-09, No Iterations 0
Phase-1 volume fraction = 0.5  Min(alpha.grout) = -3.0944e-162  Max(alpha.grout) = 1
MULES: Correcting alpha.grout
MULES: Correcting alpha.grout
Phase-1 volume fraction = 0.5  Min(alpha.grout) = -3.0944e-162  Max(alpha.grout) = 1
DICPCG:  Solving for p_rgh, Initial residual = 1.24708e-07, Final residual = 6.32969e-08, No Iterations 6
time step continuity errors : sum local = 2.46287e-07, global = 6.38078e-10, cumulative = -5.57459e-06
DICPCG:  Solving for p_rgh, Initial residual = 6.46603e-08, Final residual = 6.46603e-08, No Iterations 0
time step continuity errors : sum local = 2.51647e-07, global = 6.38078e-10, cumulative = -5.57395e-06
DICPCG:  Solving for p_rgh, Initial residual = 6.60561e-08, Final residual = 6.60561e-08, No Iterations 0
time step continuity errors : sum local = 2.57079e-07, global = 6.38078e-10, cumulative = -5.57332e-06
ExecutionTime = 0.72 s  ClockTime = 1 s

fieldMinMax continuityError write:
    min(divPhi) = -0.00214314 in cell 5300 at location (0.005 0.535 0.005)
    max(divPhi) = 0.00204394 in cell 5201 at location (0.015 0.525 0.005)

Courant Number mean: 2.97208e-07 max: 0.00014045
Interface Courant Number mean: 0 max: 0
Time = 3.3

PIMPLE: iteration 1
smoothSolver:  Solving for alpha.grout, Initial residual = 1.17441e-08, Final residual = 3.43931e-17, No Iterations 1
Phase-1 volume fraction = 0.5  Min(alpha.grout) = -3.0944e-162  Max(alpha.grout) = 1
MULES: Correcting alpha.grout
MULES: Correcting alpha.grout
Phase-1 volume fraction = 0.5  Min(alpha.grout) = -3.0944e-162  Max(alpha.grout) = 1
DICPCG:  Solving for p_rgh, Initial residual = 1.22568e-07, Final residual = 5.01904e-08, No Iterations 8
time step continuity errors : sum local = 1.95333e-07, global = 3.30759e-10, cumulative = -5.57299e-06
DICPCG:  Solving for p_rgh, Initial residual = 5.25646e-08, Final residual = 5.25646e-08, No Iterations 0
time step continuity errors : sum local = 2.05367e-07, global = 3.30759e-10, cumulative = -5.57266e-06
DICPCG:  Solving for p_rgh, Initial residual = 5.51159e-08, Final residual = 5.51159e-08, No Iterations 0
time step continuity errors : sum local = 2.15334e-07, global = 3.30759e-10, cumulative = -5.57232e-06
ExecutionTime = 0.74 s  ClockTime = 1 s

fieldMinMax continuityError write:
    min(divPhi) = -0.00239833 in cell 5300 at location (0.005 0.535 0.005)
    max(divPhi) = 0.0022172 in cell 5201 at location (0.015 0.525 0.005)

Courant Number mean: 2.78988e-07 max: 0.000148071
Interface Courant Number mean: 0 max: 0
Time = 3.4

PIMPLE: iteration 1
smoothSolver:  Solving for alpha.grout, Initial residual = 2.10159e-08, Final residual = 3.48228e-17, No Iterations 1
Phase-1 volume fraction = 0.5  Min(alpha.grout) = -5.08368e-244  Max(alpha.grout) = 1
MULES: Correcting alpha.grout
MULES: Correcting alpha.grout
Phase-1 volume fraction = 0.5  Min(alpha.grout) = -5.08368e-244  Max(alpha.grout) = 1
DICPCG:  Solving for p_rgh, Initial residual = 9.3406e-08, Final residual = 9.3406e-08, No Iterations 0
time step continuity errors : sum local = 3.64931e-07, global = 3.30759e-10, cumulative = -5.57199e-06
DICPCG:  Solving for p_rgh, Initial residual = 9.56184e-08, Final residual = 9.56184e-08, No Iterations 0
time step continuity errors : sum local = 3.73575e-07, global = 3.30759e-10, cumulative = -5.57166e-06
DICPCG:  Solving for p_rgh, Initial residual = 9.77195e-08, Final residual = 9.77195e-08, No Iterations 0
time step continuity errors : sum local = 3.81784e-07, global = 3.30759e-10, cumulative = -5.57133e-06
ExecutionTime = 0.75 s  ClockTime = 1 s

fieldMinMax continuityError write:
    min(divPhi) = -0.00278459 in cell 5300 at location (0.005 0.535 0.005)
    max(divPhi) = 0.0024668 in cell 5201 at location (0.015 0.525 0.005)

Courant Number mean: 5.38172e-07 max: 0.000164396
Interface Courant Number mean: 0 max: 0
Time = 3.5

PIMPLE: iteration 1
smoothSolver:  Solving for alpha.grout, Initial residual = 4.71478e-08, Final residual = 3.43658e-17, No Iterations 1
Phase-1 volume fraction = 0.5  Min(alpha.grout) = -5.15527e-268  Max(alpha.grout) = 1
MULES: Correcting alpha.grout
MULES: Correcting alpha.grout
Phase-1 volume fraction = 0.5  Min(alpha.grout) = -5.15527e-268  Max(alpha.grout) = 1
DICPCG:  Solving for p_rgh, Initial residual = 1.40462e-07, Final residual = 9.53994e-08, No Iterations 9
time step continuity errors : sum local = 3.7272e-07, global = -1.97933e-10, cumulative = -5.57153e-06
DICPCG:  Solving for p_rgh, Initial residual = 1.06878e-07, Final residual = 7.80923e-08, No Iterations 9
time step continuity errors : sum local = 3.02599e-07, global = -4.64441e-11, cumulative = -5.57158e-06
DICPCG:  Solving for p_rgh, Initial residual = 7.78075e-08, Final residual = 7.78075e-08, No Iterations 0
time step continuity errors : sum local = 3.04481e-07, global = -4.64441e-11, cumulative = -5.57162e-06
ExecutionTime = 0.77 s  ClockTime = 1 s

fieldMinMax continuityError write:
    min(divPhi) = -0.00487207 in cell 5300 at location (0.005 0.535 0.005)
    max(divPhi) = 0.00523163 in cell 5201 at location (0.015 0.525 0.005)

Courant Number mean: 2.84859e-07 max: 0.000285873
Interface Courant Number mean: 0 max: 0
Time = 3.6

PIMPLE: iteration 1
smoothSolver:  Solving for alpha.grout, Initial residual = 2.76213e-09, Final residual = 2.76213e-09, No Iterations 0
Phase-1 volume fraction = 0.5  Min(alpha.grout) = -5.15527e-268  Max(alpha.grout) = 1
MULES: Correcting alpha.grout
MULES: Correcting alpha.grout
Phase-1 volume fraction = 0.5  Min(alpha.grout) = -5.15527e-268  Max(alpha.grout) = 1
DICPCG:  Solving for p_rgh, Initial residual = 1.3156e-07, Final residual = 9.73033e-08, No Iterations 4
time step continuity errors : sum local = 3.80773e-07, global = -3.67591e-10, cumulative = -5.57199e-06
DICPCG:  Solving for p_rgh, Initial residual = 9.75905e-08, Final residual = 9.75905e-08, No Iterations 0
time step continuity errors : sum local = 3.82482e-07, global = -3.67591e-10, cumulative = -5.57236e-06
DICPCG:  Solving for p_rgh, Initial residual = 9.80569e-08, Final residual = 9.80569e-08, No Iterations 0
time step continuity errors : sum local = 3.8431e-07, global = -3.67591e-10, cumulative = -5.57273e-06
ExecutionTime = 0.78 s  ClockTime = 1 s

fieldMinMax continuityError write:
    min(divPhi) = -0.00492185 in cell 5300 at location (0.005 0.535 0.005)
    max(divPhi) = 0.00529674 in cell 5201 at location (0.015 0.525 0.005)

Courant Number mean: 3.5762e-07 max: 0.000303546
Interface Courant Number mean: 0 max: 0
Time = 3.7

PIMPLE: iteration 1
smoothSolver:  Solving for alpha.grout, Initial residual = 4.97188e-09, Final residual = 4.97188e-09, No Iterations 0
Phase-1 volume fraction = 0.5  Min(alpha.grout) = -5.15527e-268  Max(alpha.grout) = 1
MULES: Correcting alpha.grout
MULES: Correcting alpha.grout
Phase-1 volume fraction = 0.5  Min(alpha.grout) = -5.15527e-268  Max(alpha.grout) = 1
DICPCG:  Solving for p_rgh, Initial residual = 1.21432e-07, Final residual = 7.36585e-08, No Iterations 4
time step continuity errors : sum local = 2.88686e-07, global = -3.54889e-10, cumulative = -5.57308e-06
DICPCG:  Solving for p_rgh, Initial residual = 7.42738e-08, Final residual = 7.42738e-08, No Iterations 0
time step continuity errors : sum local = 2.92246e-07, global = -3.54889e-10, cumulative = -5.57344e-06
DICPCG:  Solving for p_rgh, Initial residual = 7.52273e-08, Final residual = 7.52273e-08, No Iterations 0
time step continuity errors : sum local = 2.95997e-07, global = -3.54889e-10, cumulative = -5.57379e-06
ExecutionTime = 0.8 s  ClockTime = 1 s

fieldMinMax continuityError write:
    min(divPhi) = -0.00418655 in cell 5300 at location (0.005 0.535 0.005)
    max(divPhi) = 0.00441031 in cell 5201 at location (0.015 0.525 0.005)

Courant Number mean: 2.95646e-07 max: 0.00027697
Interface Courant Number mean: 0 max: 0
Time = 3.8

PIMPLE: iteration 1
smoothSolver:  Solving for alpha.grout, Initial residual = 8.43092e-09, Final residual = 8.43092e-09, No Iterations 0
Phase-1 volume fraction = 0.5  Min(alpha.grout) = -5.15527e-268  Max(alpha.grout) = 1
MULES: Correcting alpha.grout
MULES: Correcting alpha.grout
Phase-1 volume fraction = 0.5  Min(alpha.grout) = -5.15527e-268  Max(alpha.grout) = 1
DICPCG:  Solving for p_rgh, Initial residual = 9.79811e-08, Final residual = 9.79811e-08, No Iterations 0
time step continuity errors : sum local = 3.85527e-07, global = -3.54889e-10, cumulative = -5.57415e-06
DICPCG:  Solving for p_rgh, Initial residual = 9.88334e-08, Final residual = 9.88334e-08, No Iterations 0
time step continuity errors : sum local = 3.8888e-07, global = -3.54889e-10, cumulative = -5.5745e-06
DICPCG:  Solving for p_rgh, Initial residual = 9.96192e-08, Final residual = 9.96192e-08, No Iterations 0
time step continuity errors : sum local = 3.91972e-07, global = -3.54889e-10, cumulative = -5.57486e-06
ExecutionTime = 0.81 s  ClockTime = 1 s

fieldMinMax continuityError write:
    min(divPhi) = -0.00389292 in cell 5300 at location (0.005 0.535 0.005)
    max(divPhi) = 0.00424211 in cell 5201 at location (0.015 0.525 0.005)

Courant Number mean: 4.26685e-07 max: 0.000267885
Interface Courant Number mean: 0 max: 0
Time = 3.9

PIMPLE: iteration 1
smoothSolver:  Solving for alpha.grout, Initial residual = 1.84357e-08, Final residual = 3.45887e-17, No Iterations 1
Phase-1 volume fraction = 0.5  Min(alpha.grout) = -3.70512e-281  Max(alpha.grout) = 1
MULES: Correcting alpha.grout
MULES: Correcting alpha.grout
Phase-1 volume fraction = 0.5  Min(alpha.grout) = -3.70512e-281  Max(alpha.grout) = 1
DICPCG:  Solving for p_rgh, Initial residual = 1.26871e-07, Final residual = 7.19398e-08, No Iterations 4
time step continuity errors : sum local = 2.83062e-07, global = -7.02596e-10, cumulative = -5.57556e-06
DICPCG:  Solving for p_rgh, Initial residual = 7.62973e-08, Final residual = 7.62973e-08, No Iterations 0
time step continuity errors : sum local = 2.97609e-07, global = -7.02596e-10, cumulative = -5.57626e-06
DICPCG:  Solving for p_rgh, Initial residual = 8.01857e-08, Final residual = 8.01857e-08, No Iterations 0
time step continuity errors : sum local = 3.12777e-07, global = -7.02596e-10, cumulative = -5.57696e-06
ExecutionTime = 0.83 s  ClockTime = 1 s

fieldMinMax continuityError write:
    min(divPhi) = -0.00424201 in cell 5300 at location (0.005 0.535 0.005)
    max(divPhi) = 0.00446139 in cell 5201 at location (0.015 0.525 0.005)

Courant Number mean: 3.76696e-07 max: 0.000281218
Interface Courant Number mean: 0 max: 0
Time = 4

PIMPLE: iteration 1
smoothSolver:  Solving for alpha.grout, Initial residual = 3.3327e-08, Final residual = 3.39038e-17, No Iterations 1
Phase-1 volume fraction = 0.5  Min(alpha.grout) = -3.70512e-281  Max(alpha.grout) = 1
MULES: Correcting alpha.grout
MULES: Correcting alpha.grout
Phase-1 volume fraction = 0.5  Min(alpha.grout) = -3.70512e-281  Max(alpha.grout) = 1
DICPCG:  Solving for p_rgh, Initial residual = 1.2216e-07, Final residual = 7.57035e-08, No Iterations 4
time step continuity errors : sum local = 2.95293e-07, global = -8.0409e-10, cumulative = -5.57777e-06
DICPCG:  Solving for p_rgh, Initial residual = 8.1075e-08, Final residual = 8.1075e-08, No Iterations 0
time step continuity errors : sum local = 3.21677e-07, global = -8.0409e-10, cumulative = -5.57857e-06
DICPCG:  Solving for p_rgh, Initial residual = 8.80703e-08, Final residual = 8.80703e-08, No Iterations 0
time step continuity errors : sum local = 3.49432e-07, global = -8.0409e-10, cumulative = -5.57938e-06
ExecutionTime = 0.87 s  ClockTime = 1 s

fieldMinMax continuityError write:
    min(divPhi) = -0.0045766 in cell 5300 at location (0.005 0.535 0.005)
    max(divPhi) = 0.00487235 in cell 5201 at location (0.015 0.525 0.005)

Courant Number mean: 4.83632e-07 max: 0.00029884
Interface Courant Number mean: 0 max: 0
Time = 4.1

PIMPLE: iteration 1
smoothSolver:  Solving for alpha.grout, Initial residual = 5.98976e-08, Final residual = 3.3982e-17, No Iterations 1
Phase-1 volume fraction = 0.5  Min(alpha.grout) = -3.70509e-281  Max(alpha.grout) = 1
MULES: Correcting alpha.grout
MULES: Correcting alpha.grout
Phase-1 volume fraction = 0.5  Min(alpha.grout) = -3.70509e-281  Max(alpha.grout) = 1
DICPCG:  Solving for p_rgh, Initial residual = 1.15341e-07, Final residual = 7.31748e-08, No Iterations 4
time step continuity errors : sum local = 2.90332e-07, global = -9.46732e-10, cumulative = -5.58032e-06
DICPCG:  Solving for p_rgh, Initial residual = 8.81764e-08, Final residual = 8.81764e-08, No Iterations 0
time step continuity errors : sum local = 3.38721e-07, global = -9.46732e-10, cumulative = -5.58127e-06
DICPCG:  Solving for p_rgh, Initial residual = 1.01168e-07, Final residual = 6.8433e-08, No Iterations 4
time step continuity errors : sum local = 2.62879e-07, global = -9.02387e-10, cumulative = -5.58217e-06
ExecutionTime = 0.88 s  ClockTime = 1 s

fieldMinMax continuityError write:
    min(divPhi) = -0.00459424 in cell 5300 at location (0.005 0.535 0.005)
    max(divPhi) = 0.00474269 in cell 5201 at location (0.015 0.525 0.005)

Courant Number mean: 2.78113e-07 max: 0.000305937
Interface Courant Number mean: 0 max: 0
Time = 4.2

PIMPLE: iteration 1
smoothSolver:  Solving for alpha.grout, Initial residual = 4.4435e-09, Final residual = 4.4435e-09, No Iterations 0
Phase-1 volume fraction = 0.5  Min(alpha.grout) = -3.70509e-281  Max(alpha.grout) = 1
MULES: Correcting alpha.grout
MULES: Correcting alpha.grout
Phase-1 volume fraction = 0.5  Min(alpha.grout) = -3.70509e-281  Max(alpha.grout) = 1
DICPCG:  Solving for p_rgh, Initial residual = 7.81823e-08, Final residual = 7.81823e-08, No Iterations 0
time step continuity errors : sum local = 3.12308e-07, global = -9.02387e-10, cumulative = -5.58307e-06
DICPCG:  Solving for p_rgh, Initial residual = 8.93871e-08, Final residual = 8.93871e-08, No Iterations 0
time step continuity errors : sum local = 3.57067e-07, global = -9.02387e-10, cumulative = -5.58398e-06
DICPCG:  Solving for p_rgh, Initial residual = 1.00264e-07, Final residual = 5.24874e-08, No Iterations 4
time step continuity errors : sum local = 2.09667e-07, global = -1.01156e-09, cumulative = -5.58499e-06
ExecutionTime = 0.9 s  ClockTime = 1 s

fieldMinMax continuityError write:
    min(divPhi) = -0.00370941 in cell 5300 at location (0.005 0.535 0.005)
    max(divPhi) = 0.00382439 in cell 5201 at location (0.015 0.525 0.005)

Courant Number mean: 2.43726e-07 max: 0.000272655
Interface Courant Number mean: 0 max: 0
Time = 4.3

PIMPLE: iteration 1
smoothSolver:  Solving for alpha.grout, Initial residual = 4.75445e-09, Final residual = 4.75445e-09, No Iterations 0
Phase-1 volume fraction = 0.5  Min(alpha.grout) = -3.70509e-281  Max(alpha.grout) = 1
MULES: Correcting alpha.grout
MULES: Correcting alpha.grout
Phase-1 volume fraction = 0.5  Min(alpha.grout) = -3.70509e-281  Max(alpha.grout) = 1
DICPCG:  Solving for p_rgh, Initial residual = 6.7712e-08, Final residual = 6.7712e-08, No Iterations 0
time step continuity errors : sum local = 2.55653e-07, global = -1.01156e-09, cumulative = -5.586e-06
DICPCG:  Solving for p_rgh, Initial residual = 8.77056e-08, Final residual = 8.77056e-08, No Iterations 0
time step continuity errors : sum local = 3.3114e-07, global = -1.01156e-09, cumulative = -5.58701e-06
DICPCG:  Solving for p_rgh, Initial residual = 1.07437e-07, Final residual = 8.62393e-08, No Iterations 2
time step continuity errors : sum local = 3.25604e-07, global = -9.98714e-10, cumulative = -5.58801e-06
ExecutionTime = 0.91 s  ClockTime = 1 s

fieldMinMax continuityError write:
    min(divPhi) = -0.00546765 in cell 5300 at location (0.005 0.535 0.005)
    max(divPhi) = 0.00560002 in cell 5201 at location (0.015 0.525 0.005)

Courant Number mean: 3.89484e-07 max: 0.00034704
Interface Courant Number mean: 0 max: 0
Time = 4.4

PIMPLE: iteration 1
smoothSolver:  Solving for alpha.grout, Initial residual = 2.3953e-08, Final residual = 3.43608e-17, No Iterations 1
Phase-1 volume fraction = 0.5  Min(alpha.grout) = -3.70506e-281  Max(alpha.grout) = 1
MULES: Correcting alpha.grout
MULES: Correcting alpha.grout
Phase-1 volume fraction = 0.5  Min(alpha.grout) = -3.70506e-281  Max(alpha.grout) = 1
DICPCG:  Solving for p_rgh, Initial residual = 1.28408e-07, Final residual = 5.38585e-08, No Iterations 4
time step continuity errors : sum local = 2.22079e-07, global = -1.09075e-09, cumulative = -5.5891e-06
DICPCG:  Solving for p_rgh, Initial residual = 6.04028e-08, Final residual = 6.04028e-08, No Iterations 0
time step continuity errors : sum local = 2.36575e-07, global = -1.09075e-09, cumulative = -5.59019e-06
DICPCG:  Solving for p_rgh, Initial residual = 6.46527e-08, Final residual = 6.46527e-08, No Iterations 0
time step continuity errors : sum local = 2.5322e-07, global = -1.09075e-09, cumulative = -5.59128e-06
ExecutionTime = 0.93 s  ClockTime = 1 s

fieldMinMax continuityError write:
    min(divPhi) = -0.00398575 in cell 5300 at location (0.005 0.535 0.005)
    max(divPhi) = 0.00413498 in cell 5201 at location (0.015 0.525 0.005)

Courant Number mean: 3.70982e-07 max: 0.000295729
Interface Courant Number mean: 0 max: 0
Time = 4.5

PIMPLE: iteration 1
smoothSolver:  Solving for alpha.grout, Initial residual = 4.07275e-08, Final residual = 3.36876e-17, No Iterations 1
Phase-1 volume fraction = 0.5  Min(alpha.grout) = -3.70502e-281  Max(alpha.grout) = 1
MULES: Correcting alpha.grout
MULES: Correcting alpha.grout
Phase-1 volume fraction = 0.5  Min(alpha.grout) = -3.70502e-281  Max(alpha.grout) = 1
DICPCG:  Solving for p_rgh, Initial residual = 6.62476e-08, Final residual = 6.62476e-08, No Iterations 0
time step continuity errors : sum local = 2.59467e-07, global = -1.09075e-09, cumulative = -5.59237e-06
DICPCG:  Solving for p_rgh, Initial residual = 6.95405e-08, Final residual = 6.95405e-08, No Iterations 0
time step continuity errors : sum local = 2.72364e-07, global = -1.09075e-09, cumulative = -5.59346e-06
DICPCG:  Solving for p_rgh, Initial residual = 7.26953e-08, Final residual = 7.26953e-08, No Iterations 0
time step continuity errors : sum local = 2.8472e-07, global = -1.09075e-09, cumulative = -5.59455e-06
ExecutionTime = 0.94 s  ClockTime = 1 s

fieldMinMax continuityError write:
    min(divPhi) = -0.00291173 in cell 5300 at location (0.005 0.535 0.005)
    max(divPhi) = 0.00328696 in cell 5201 at location (0.015 0.525 0.005)

Courant Number mean: 5.30358e-07 max: 0.00023871
Interface Courant Number mean: 0 max: 0
Time = 4.6

PIMPLE: iteration 1
smoothSolver:  Solving for alpha.grout, Initial residual = 8.32285e-08, Final residual = 3.43302e-17, No Iterations 1
Phase-1 volume fraction = 0.5  Min(alpha.grout) = -3.70498e-281  Max(alpha.grout) = 1
MULES: Correcting alpha.grout
MULES: Correcting alpha.grout
Phase-1 volume fraction = 0.5  Min(alpha.grout) = -3.70498e-281  Max(alpha.grout) = 1
DICPCG:  Solving for p_rgh, Initial residual = 7.73754e-08, Final residual = 7.73754e-08, No Iterations 0
time step continuity errors : sum local = 3.0305e-07, global = -1.09075e-09, cumulative = -5.59564e-06
DICPCG:  Solving for p_rgh, Initial residual = 8.00172e-08, Final residual = 8.00172e-08, No Iterations 0
time step continuity errors : sum local = 3.13397e-07, global = -1.09075e-09, cumulative = -5.59674e-06
DICPCG:  Solving for p_rgh, Initial residual = 8.25398e-08, Final residual = 8.25398e-08, No Iterations 0
time step continuity errors : sum local = 3.23277e-07, global = -1.09075e-09, cumulative = -5.59783e-06
ExecutionTime = 0.95 s  ClockTime = 1 s

fieldMinMax continuityError write:
    min(divPhi) = -0.0019562 in cell 5300 at location (0.005 0.535 0.005)
    max(divPhi) = 0.00255048 in cell 5201 at location (0.015 0.525 0.005)

Courant Number mean: 6.92016e-07 max: 0.000184324
Interface Courant Number mean: 0 max: 0
Time = 4.7

PIMPLE: iteration 1
smoothSolver:  Solving for alpha.grout, Initial residual = 1.16968e-07, Final residual = 3.39375e-17, No Iterations 1
Phase-1 volume fraction = 0.5  Min(alpha.grout) = -3.70494e-281  Max(alpha.grout) = 1
MULES: Correcting alpha.grout
MULES: Correcting alpha.grout
Phase-1 volume fraction = 0.5  Min(alpha.grout) = -3.70494e-281  Max(alpha.grout) = 1
DICPCG:  Solving for p_rgh, Initial residual = 8.92622e-08, Final residual = 8.92622e-08, No Iterations 0
time step continuity errors : sum local = 3.49606e-07, global = -1.09075e-09, cumulative = -5.59892e-06
DICPCG:  Solving for p_rgh, Initial residual = 9.13802e-08, Final residual = 9.13802e-08, No Iterations 0
time step continuity errors : sum local = 3.57902e-07, global = -1.09075e-09, cumulative = -5.60001e-06
DICPCG:  Solving for p_rgh, Initial residual = 9.33948e-08, Final residual = 9.33948e-08, No Iterations 0
time step continuity errors : sum local = 3.65792e-07, global = -1.09075e-09, cumulative = -5.6011e-06
ExecutionTime = 0.97 s  ClockTime = 2 s

fieldMinMax continuityError write:
    min(divPhi) = -0.00112751 in cell 5300 at location (0.005 0.535 0.005)
    max(divPhi) = 0.00215285 in cell 5201 at location (0.015 0.525 0.005)

Courant Number mean: 8.43444e-07 max: 0.000131542
Interface Courant Number mean: 0 max: 0
Time = 4.8

PIMPLE: iteration 1
smoothSolver:  Solving for alpha.grout, Initial residual = 1.43635e-07, Final residual = 3.35924e-17, No Iterations 1
Phase-1 volume fraction = 0.5  Min(alpha.grout) = -3.70489e-281  Max(alpha.grout) = 1
MULES: Correcting alpha.grout
MULES: Correcting alpha.grout
Phase-1 volume fraction = 0.5  Min(alpha.grout) = -3.70489e-281  Max(alpha.grout) = 1
DICPCG:  Solving for p_rgh, Initial residual = 1.01882e-07, Final residual = 4.73448e-08, No Iterations 3
time step continuity errors : sum local = 1.85432e-07, global = -1.0963e-09, cumulative = -5.60219e-06
DICPCG:  Solving for p_rgh, Initial residual = 7.91395e-08, Final residual = 7.91395e-08, No Iterations 0
time step continuity errors : sum local = 2.95005e-07, global = -1.0963e-09, cumulative = -5.60329e-06
DICPCG:  Solving for p_rgh, Initial residual = 1.10424e-07, Final residual = 8.01819e-08, No Iterations 2
time step continuity errors : sum local = 2.98891e-07, global = -1.13856e-09, cumulative = -5.60443e-06
ExecutionTime = 0.98 s  ClockTime = 2 s

fieldMinMax continuityError write:
    min(divPhi) = -0.00335599 in cell 5201 at location (0.015 0.525 0.005)
    max(divPhi) = 0.00341325 in cell 5300 at location (0.005 0.535 0.005)

Courant Number mean: 4.36297e-07 max: 0.00019298
Interface Courant Number mean: 0 max: 0
Time = 4.9

PIMPLE: iteration 1
smoothSolver:  Solving for alpha.grout, Initial residual = 5.77188e-08, Final residual = 3.3688e-17, No Iterations 1
Phase-1 volume fraction = 0.5  Min(alpha.grout) = -3.70481e-281  Max(alpha.grout) = 1
MULES: Correcting alpha.grout
MULES: Correcting alpha.grout
Phase-1 volume fraction = 0.5  Min(alpha.grout) = -3.70481e-281  Max(alpha.grout) = 1
DICPCG:  Solving for p_rgh, Initial residual = 1.28565e-07, Final residual = 5.10454e-08, No Iterations 2
time step continuity errors : sum local = 2.17821e-07, global = -1.04002e-09, cumulative = -5.60547e-06
DICPCG:  Solving for p_rgh, Initial residual = 6.53517e-08, Final residual = 6.53517e-08, No Iterations 0
time step continuity errors : sum local = 2.57537e-07, global = -1.04002e-09, cumulative = -5.60651e-06
DICPCG:  Solving for p_rgh, Initial residual = 7.5749e-08, Final residual = 7.5749e-08, No Iterations 0
time step continuity errors : sum local = 2.9851e-07, global = -1.04002e-09, cumulative = -5.60755e-06
ExecutionTime = 1 s  ClockTime = 2 s

fieldMinMax continuityError write:
    min(divPhi) = -0.00313305 in cell 5201 at location (0.015 0.525 0.005)
    max(divPhi) = 0.00320229 in cell 5300 at location (0.005 0.535 0.005)

Courant Number mean: 6.22005e-07 max: 0.000171984
Interface Courant Number mean: 0 max: 0
Time = 5

PIMPLE: iteration 1
smoothSolver:  Solving for alpha.grout, Initial residual = 1.16285e-07, Final residual = 3.38464e-17, No Iterations 1
Phase-1 volume fraction = 0.5  Min(alpha.grout) = -3.70474e-281  Max(alpha.grout) = 1
MULES: Correcting alpha.grout
MULES: Correcting alpha.grout
Phase-1 volume fraction = 0.5  Min(alpha.grout) = -3.70474e-281  Max(alpha.grout) = 1
DICPCG:  Solving for p_rgh, Initial residual = 1.16302e-07, Final residual = 4.1299e-08, No Iterations 4
time step continuity errors : sum local = 1.6275e-07, global = -1.13672e-09, cumulative = -5.60869e-06
DICPCG:  Solving for p_rgh, Initial residual = 6.39201e-08, Final residual = 6.39201e-08, No Iterations 0
time step continuity errors : sum local = 2.43646e-07, global = -1.13672e-09, cumulative = -5.60982e-06
DICPCG:  Solving for p_rgh, Initial residual = 8.60559e-08, Final residual = 8.60559e-08, No Iterations 0
time step continuity errors : sum local = 3.28022e-07, global = -1.13672e-09, cumulative = -5.61096e-06
ExecutionTime = 1.04 s  ClockTime = 2 s

fieldMinMax continuityError write:
    min(divPhi) = -0.0026318 in cell 5201 at location (0.015 0.525 0.005)
    max(divPhi) = 0.00310275 in cell 5300 at location (0.005 0.535 0.005)

Courant Number mean: 7.54243e-07 max: 0.000155137
Interface Courant Number mean: 0 max: 0
Time = 5.1

PIMPLE: iteration 1
smoothSolver:  Solving for alpha.grout, Initial residual = 1.79115e-07, Final residual = 3.41034e-17, No Iterations 1
Phase-1 volume fraction = 0.5  Min(alpha.grout) = -3.70467e-281  Max(alpha.grout) = 1
MULES: Correcting alpha.grout
MULES: Correcting alpha.grout
Phase-1 volume fraction = 0.5  Min(alpha.grout) = -3.70467e-281  Max(alpha.grout) = 1
DICPCG:  Solving for p_rgh, Initial residual = 1.26832e-07, Final residual = 5.29938e-08, No Iterations 4
time step continuity errors : sum local = 2.01998e-07, global = -1.0513e-09, cumulative = -5.61201e-06
DICPCG:  Solving for p_rgh, Initial residual = 8.50319e-08, Final residual = 8.50319e-08, No Iterations 0
time step continuity errors : sum local = 3.42441e-07, global = -1.0513e-09, cumulative = -5.61306e-06
DICPCG:  Solving for p_rgh, Initial residual = 1.20556e-07, Final residual = 7.45173e-08, No Iterations 4
time step continuity errors : sum local = 3.00096e-07, global = -1.07622e-09, cumulative = -5.61414e-06
ExecutionTime = 1.06 s  ClockTime = 2 s

fieldMinMax continuityError write:
    min(divPhi) = -0.00621105 in cell 5201 at location (0.015 0.525 0.005)
    max(divPhi) = 0.00638511 in cell 5300 at location (0.005 0.535 0.005)

Courant Number mean: 3.60421e-07 max: 0.000319255
Interface Courant Number mean: 0 max: 0
Time = 5.2

PIMPLE: iteration 1
smoothSolver:  Solving for alpha.grout, Initial residual = 1.63006e-08, Final residual = 3.42832e-17, No Iterations 1
Phase-1 volume fraction = 0.5  Min(alpha.grout) = -3.7046e-281  Max(alpha.grout) = 1
MULES: Correcting alpha.grout
MULES: Correcting alpha.grout
Phase-1 volume fraction = 0.5  Min(alpha.grout) = -3.7046e-281  Max(alpha.grout) = 1
DICPCG:  Solving for p_rgh, Initial residual = 1.53447e-07, Final residual = 5.84521e-08, No Iterations 5
time step continuity errors : sum local = 2.16016e-07, global = -1.04725e-09, cumulative = -5.61519e-06
DICPCG:  Solving for p_rgh, Initial residual = 5.83595e-08, Final residual = 5.83595e-08, No Iterations 0
time step continuity errors : sum local = 2.27424e-07, global = -1.04725e-09, cumulative = -5.61623e-06
DICPCG:  Solving for p_rgh, Initial residual = 6.11296e-08, Final residual = 6.11296e-08, No Iterations 0
time step continuity errors : sum local = 2.38219e-07, global = -1.04725e-09, cumulative = -5.61728e-06
ExecutionTime = 1.07 s  ClockTime = 2 s

fieldMinMax continuityError write:
    min(divPhi) = -0.00482863 in cell 5300 at location (0.005 0.535 0.005)
    max(divPhi) = 0.0047509 in cell 5201 at location (0.015 0.525 0.005)

Courant Number mean: 3.33027e-07 max: 0.000241432
Interface Courant Number mean: 0 max: 0
Time = 5.3

PIMPLE: iteration 1
smoothSolver:  Solving for alpha.grout, Initial residual = 2.53778e-08, Final residual = 3.42064e-17, No Iterations 1
Phase-1 volume fraction = 0.5  Min(alpha.grout) = -3.70454e-281  Max(alpha.grout) = 1
MULES: Correcting alpha.grout
MULES: Correcting alpha.grout
Phase-1 volume fraction = 0.5  Min(alpha.grout) = -3.70454e-281  Max(alpha.grout) = 1
DICPCG:  Solving for p_rgh, Initial residual = 1.49599e-07, Final residual = 5.4635e-08, No Iterations 5
time step continuity errors : sum local = 2.1291e-07, global = -9.20249e-10, cumulative = -5.6182e-06
DICPCG:  Solving for p_rgh, Initial residual = 6.07347e-08, Final residual = 6.07347e-08, No Iterations 0
time step continuity errors : sum local = 2.32455e-07, global = -9.20249e-10, cumulative = -5.61912e-06
DICPCG:  Solving for p_rgh, Initial residual = 6.58437e-08, Final residual = 6.58437e-08, No Iterations 0
time step continuity errors : sum local = 2.52009e-07, global = -9.20249e-10, cumulative = -5.62004e-06
ExecutionTime = 1.09 s  ClockTime = 2 s

fieldMinMax continuityError write:
    min(divPhi) = -0.00489127 in cell 5201 at location (0.015 0.525 0.005)
    max(divPhi) = 0.00451469 in cell 5300 at location (0.005 0.535 0.005)

Courant Number mean: 3.65604e-07 max: 0.000244564
Interface Courant Number mean: 0 max: 0
Time = 5.4

PIMPLE: iteration 1
smoothSolver:  Solving for alpha.grout, Initial residual = 4.08646e-08, Final residual = 3.44307e-17, No Iterations 1
Phase-1 volume fraction = 0.5  Min(alpha.grout) = -3.70447e-281  Max(alpha.grout) = 1
MULES: Correcting alpha.grout
MULES: Correcting alpha.grout
Phase-1 volume fraction = 0.5  Min(alpha.grout) = -3.70447e-281  Max(alpha.grout) = 1
DICPCG:  Solving for p_rgh, Initial residual = 1.37737e-07, Final residual = 8.66586e-08, No Iterations 6
time step continuity errors : sum local = 3.31676e-07, global = -7.57779e-10, cumulative = -5.6208e-06
DICPCG:  Solving for p_rgh, Initial residual = 9.30085e-08, Final residual = 9.30085e-08, No Iterations 0
time step continuity errors : sum local = 3.65677e-07, global = -7.57779e-10, cumulative = -5.62156e-06
DICPCG:  Solving for p_rgh, Initial residual = 1.01561e-07, Final residual = 9.3857e-08, No Iterations 5
time step continuity errors : sum local = 3.69013e-07, global = -7.23173e-10, cumulative = -5.62228e-06
ExecutionTime = 1.1 s  ClockTime = 2 s

fieldMinMax continuityError write:
    min(divPhi) = -0.00867507 in cell 5300 at location (0.005 0.535 0.005)
    max(divPhi) = 0.00849444 in cell 5201 at location (0.015 0.525 0.005)

Courant Number mean: 3.87796e-07 max: 0.000433754
Interface Courant Number mean: 0 max: 0
Time = 5.5

PIMPLE: iteration 1
smoothSolver:  Solving for alpha.grout, Initial residual = 4.02208e-09, Final residual = 4.02208e-09, No Iterations 0
Phase-1 volume fraction = 0.5  Min(alpha.grout) = -3.70447e-281  Max(alpha.grout) = 1
MULES: Correcting alpha.grout
MULES: Correcting alpha.grout
Phase-1 volume fraction = 0.5  Min(alpha.grout) = -3.70447e-281  Max(alpha.grout) = 1
DICPCG:  Solving for p_rgh, Initial residual = 2.09407e-07, Final residual = 4.48832e-08, No Iterations 7
time step continuity errors : sum local = 1.723e-07, global = -4.55459e-10, cumulative = -5.62274e-06
DICPCG:  Solving for p_rgh, Initial residual = 4.52319e-08, Final residual = 4.52319e-08, No Iterations 0
time step continuity errors : sum local = 1.75105e-07, global = -4.55459e-10, cumulative = -5.62319e-06
DICPCG:  Solving for p_rgh, Initial residual = 4.57966e-08, Final residual = 4.57966e-08, No Iterations 0
time step continuity errors : sum local = 1.77291e-07, global = -4.55459e-10, cumulative = -5.62365e-06
ExecutionTime = 1.12 s  ClockTime = 2 s

fieldMinMax continuityError write:
    min(divPhi) = -0.00377718 in cell 5201 at location (0.015 0.525 0.005)
    max(divPhi) = 0.00415875 in cell 5300 at location (0.005 0.535 0.005)

Courant Number mean: 2.25864e-07 max: 0.000207938
Interface Courant Number mean: 0 max: 0
Time = 5.6

PIMPLE: iteration 1
smoothSolver:  Solving for alpha.grout, Initial residual = 5.00447e-09, Final residual = 5.00447e-09, No Iterations 0
Phase-1 volume fraction = 0.5  Min(alpha.grout) = -3.70447e-281  Max(alpha.grout) = 1
MULES: Correcting alpha.grout
MULES: Correcting alpha.grout
Phase-1 volume fraction = 0.5  Min(alpha.grout) = -3.70447e-281  Max(alpha.grout) = 1
DICPCG:  Solving for p_rgh, Initial residual = 1.45991e-07, Final residual = 7.07645e-08, No Iterations 4
time step continuity errors : sum local = 2.73948e-07, global = -1.50942e-10, cumulative = -5.6238e-06
DICPCG:  Solving for p_rgh, Initial residual = 7.0877e-08, Final residual = 7.0877e-08, No Iterations 0
time step continuity errors : sum local = 2.77478e-07, global = -1.50942e-10, cumulative = -5.62395e-06
DICPCG:  Solving for p_rgh, Initial residual = 7.18273e-08, Final residual = 7.18273e-08, No Iterations 0
time step continuity errors : sum local = 2.81199e-07, global = -1.50942e-10, cumulative = -5.6241e-06
ExecutionTime = 1.13 s  ClockTime = 2 s

fieldMinMax continuityError write:
    min(divPhi) = -0.00662544 in cell 5201 at location (0.015 0.525 0.005)
    max(divPhi) = 0.00561662 in cell 5300 at location (0.005 0.535 0.005)

Courant Number mean: 2.84257e-07 max: 0.000331272
Interface Courant Number mean: 0 max: 0
Time = 5.7

PIMPLE: iteration 1
smoothSolver:  Solving for alpha.grout, Initial residual = 8.08803e-09, Final residual = 8.08803e-09, No Iterations 0
Phase-1 volume fraction = 0.5  Min(alpha.grout) = -3.70447e-281  Max(alpha.grout) = 1
MULES: Correcting alpha.grout
MULES: Correcting alpha.grout
Phase-1 volume fraction = 0.5  Min(alpha.grout) = -3.70447e-281  Max(alpha.grout) = 1
DICPCG:  Solving for p_rgh, Initial residual = 1.07546e-07, Final residual = 9.12393e-08, No Iterations 4
time step continuity errors : sum local = 3.57195e-07, global = 9.193e-11, cumulative = -5.62401e-06
DICPCG:  Solving for p_rgh, Initial residual = 9.45814e-08, Final residual = 9.45814e-08, No Iterations 0
time step continuity errors : sum local = 3.63181e-07, global = 9.193e-11, cumulative = -5.62391e-06
DICPCG:  Solving for p_rgh, Initial residual = 9.622e-08, Final residual = 9.622e-08, No Iterations 0
time step continuity errors : sum local = 3.69473e-07, global = 9.193e-11, cumulative = -5.62382e-06
ExecutionTime = 1.14 s  ClockTime = 2 s

fieldMinMax continuityError write:
    min(divPhi) = -0.00716301 in cell 5201 at location (0.015 0.525 0.005)
    max(divPhi) = 0.00804092 in cell 5300 at location (0.005 0.535 0.005)

Courant Number mean: 3.9806e-07 max: 0.000441449
Interface Courant Number mean: 0 max: 0
Time = 5.8

PIMPLE: iteration 1
smoothSolver:  Solving for alpha.grout, Initial residual = 1.3605e-08, Final residual = 3.39768e-17, No Iterations 1
Phase-1 volume fraction = 0.5  Min(alpha.grout) = -3.70447e-281  Max(alpha.grout) = 1
MULES: Correcting alpha.grout
MULES: Correcting alpha.grout
Phase-1 volume fraction = 0.5  Min(alpha.grout) = -3.70447e-281  Max(alpha.grout) = 1
DICPCG:  Solving for p_rgh, Initial residual = 1.35884e-07, Final residual = 4.54084e-08, No Iterations 6
time step continuity errors : sum local = 1.74363e-07, global = 3.20607e-10, cumulative = -5.6235e-06
DICPCG:  Solving for p_rgh, Initial residual = 4.69526e-08, Final residual = 4.69526e-08, No Iterations 0
time step continuity errors : sum local = 1.85612e-07, global = 3.20607e-10, cumulative = -5.62318e-06
DICPCG:  Solving for p_rgh, Initial residual = 4.97899e-08, Final residual = 4.97899e-08, No Iterations 0
time step continuity errors : sum local = 1.96829e-07, global = 3.20607e-10, cumulative = -5.62286e-06
ExecutionTime = 1.16 s  ClockTime = 2 s

fieldMinMax continuityError write:
    min(divPhi) = -0.00434208 in cell 5201 at location (0.015 0.525 0.005)
    max(divPhi) = 0.00415793 in cell 5300 at location (0.005 0.535 0.005)

Courant Number mean: 2.691e-07 max: 0.000272819
Interface Courant Number mean: 0 max: 0
Time = 5.9

PIMPLE: iteration 1
smoothSolver:  Solving for alpha.grout, Initial residual = 2.33136e-08, Final residual = 3.40578e-17, No Iterations 1
Phase-1 volume fraction = 0.5  Min(alpha.grout) = -3.70447e-281  Max(alpha.grout) = 1
MULES: Correcting alpha.grout
MULES: Correcting alpha.grout
Phase-1 volume fraction = 0.5  Min(alpha.grout) = -3.70447e-281  Max(alpha.grout) = 1
DICPCG:  Solving for p_rgh, Initial residual = 3.95625e-08, Final residual = 3.95625e-08, No Iterations 0
time step continuity errors : sum local = 1.56398e-07, global = 3.20607e-10, cumulative = -5.62254e-06
DICPCG:  Solving for p_rgh, Initial residual = 4.18856e-08, Final residual = 4.18856e-08, No Iterations 0
time step continuity errors : sum local = 1.65581e-07, global = 3.20607e-10, cumulative = -5.62222e-06
DICPCG:  Solving for p_rgh, Initial residual = 4.41106e-08, Final residual = 4.41106e-08, No Iterations 0
[...]
ExecutionTime = 1.67 s  ClockTime = 2 s

fieldMinMax continuityError write:
    min(divPhi) = -0.0020057 in cell 5400 at location (0.005 0.545 0.005)
    max(divPhi) = 0.00280401 in cell 5301 at location (0.015 0.535 0.005)

Courant Number mean: 5.39703e-07 max: 0.000221336
Interface Courant Number mean: 0 max: 0
Time = 8.6

PIMPLE: iteration 1
smoothSolver:  Solving for alpha.grout, Initial residual = 2.85146e-08, Final residual = 3.41548e-17, No Iterations 1
Phase-1 volume fraction = 0.5  Min(alpha.grout) = 0  Max(alpha.grout) = 1
MULES: Correcting alpha.grout
MULES: Correcting alpha.grout
Phase-1 volume fraction = 0.5  Min(alpha.grout) = 0  Max(alpha.grout) = 1
DICPCG:  Solving for p_rgh, Initial residual = 6.24171e-08, Final residual = 6.24171e-08, No Iterations 0
time step continuity errors : sum local = 6.15881e-07, global = -3.98884e-10, cumulative = -5.60256e-06
DICPCG:  Solving for p_rgh, Initial residual = 6.37129e-08, Final residual = 6.37129e-08, No Iterations 0
time step continuity errors : sum local = 6.28667e-07, global = -3.98884e-10, cumulative = -5.60296e-06
DICPCG:  Solving for p_rgh, Initial residual = 6.49561e-08, Final residual = 6.49561e-08, No Iterations 0
time step continuity errors : sum local = 6.40934e-07, global = -3.98884e-10, cumulative = -5.60336e-06
ExecutionTime = 1.68 s  ClockTime = 2 s

fieldMinMax continuityError write:
    min(divPhi) = -0.004328 in cell 5400 at location (0.005 0.545 0.005)
    max(divPhi) = 0.00205911 in cell 5300 at location (0.005 0.535 0.005)

Courant Number mean: 1.07895e-06 max: 0.000244546
Interface Courant Number mean: 0 max: 0
Time = 8.7

PIMPLE: iteration 1
smoothSolver:  Solving for alpha.grout, Initial residual = 6.71957e-08, Final residual = 3.33811e-17, No Iterations 1
Phase-1 volume fraction = 0.5  Min(alpha.grout) = 0  Max(alpha.grout) = 1
MULES: Correcting alpha.grout
MULES: Correcting alpha.grout
Phase-1 volume fraction = 0.5  Min(alpha.grout) = 0  Max(alpha.grout) = 1
DICPCG:  Solving for p_rgh, Initial residual = 9.46119e-08, Final residual = 9.46119e-08, No Iterations 0
time step continuity errors : sum local = 9.33553e-07, global = -3.98884e-10, cumulative = -5.60376e-06
DICPCG:  Solving for p_rgh, Initial residual = 9.57951e-08, Final residual = 9.57951e-08, No Iterations 0
time step continuity errors : sum local = 9.45228e-07, global = -3.98884e-10, cumulative = -5.60416e-06
DICPCG:  Solving for p_rgh, Initial residual = 9.69239e-08, Final residual = 9.69239e-08, No Iterations 0
time step continuity errors : sum local = 9.56366e-07, global = -3.98884e-10, cumulative = -5.60455e-06
ExecutionTime = 1.7 s  ClockTime = 3 s

fieldMinMax continuityError write:
    min(divPhi) = -0.00646852 in cell 5400 at location (0.005 0.545 0.005)
    max(divPhi) = 0.00299236 in cell 5300 at location (0.005 0.535 0.005)

Courant Number mean: 1.67764e-06 max: 0.000370473
Interface Courant Number mean: 0 max: 0
Time = 8.8

PIMPLE: iteration 1
smoothSolver:  Solving for alpha.grout, Initial residual = 1.02626e-07, Final residual = 3.37637e-17, No Iterations 1
Phase-1 volume fraction = 0.5  Min(alpha.grout) = 0  Max(alpha.grout) = 1
MULES: Correcting alpha.grout
MULES: Correcting alpha.grout
Phase-1 volume fraction = 0.5  Min(alpha.grout) = 0  Max(alpha.grout) = 1
DICPCG:  Solving for p_rgh, Initial residual = 1.25611e-07, Final residual = 8.79421e-08, No Iterations 40
time step continuity errors : sum local = 8.67741e-07, global = 1.93603e-09, cumulative = -5.60262e-06
DICPCG:  Solving for p_rgh, Initial residual = 2.23317e-08, Final residual = 2.23317e-08, No Iterations 0
time step continuity errors : sum local = 9.60362e-07, global = 1.93603e-09, cumulative = -5.60068e-06
DICPCG:  Solving for p_rgh, Initial residual = 2.45212e-08, Final residual = 2.45212e-08, No Iterations 0
time step continuity errors : sum local = 1.05452e-06, global = 1.93603e-09, cumulative = -5.59875e-06
ExecutionTime = 1.72 s  ClockTime = 3 s

fieldMinMax continuityError write:
    min(divPhi) = -0.00659471 in cell 5301 at location (0.015 0.535 0.005)
    max(divPhi) = 0.00479084 in cell 5400 at location (0.005 0.545 0.005)

Courant Number mean: 2.24808e-06 max: 0.000329735
Interface Courant Number mean: 0 max: 0
Time = 8.9

PIMPLE: iteration 1
smoothSolver:  Solving for alpha.grout, Initial residual = 1.94373e-07, Final residual = 3.39732e-17, No Iterations 1
Phase-1 volume fraction = 0.5  Min(alpha.grout) = 0  Max(alpha.grout) = 1
MULES: Correcting alpha.grout
MULES: Correcting alpha.grout
Phase-1 volume fraction = 0.5  Min(alpha.grout) = 0  Max(alpha.grout) = 1
DICPCG:  Solving for p_rgh, Initial residual = 5.4942e-08, Final residual = 5.4942e-08, No Iterations 0
time step continuity errors : sum local = 2.36275e-06, global = 1.93603e-09, cumulative = -5.59681e-06
DICPCG:  Solving for p_rgh, Initial residual = 5.70253e-08, Final residual = 5.70253e-08, No Iterations 0
time step continuity errors : sum local = 2.45234e-06, global = 1.93603e-09, cumulative = -5.59487e-06
DICPCG:  Solving for p_rgh, Initial residual = 5.90427e-08, Final residual = 5.90427e-08, No Iterations 0
time step continuity errors : sum local = 2.5391e-06, global = 1.93603e-09, cumulative = -5.59294e-06
ExecutionTime = 1.73 s  ClockTime = 3 s

fieldMinMax continuityError write:
    min(divPhi) = -0.0099643 in cell 5301 at location (0.015 0.535 0.005)
    max(divPhi) = 0.0131817 in cell 5400 at location (0.005 0.545 0.005)

Courant Number mean: 5.5364e-06 max: 0.000820167
Interface Courant Number mean: 0 max: 0
Time = 9

PIMPLE: iteration 1
smoothSolver:  Solving for alpha.grout, Initial residual = 4.63883e-07, Final residual = 3.44057e-17, No Iterations 1
Phase-1 volume fraction = 0.5  Min(alpha.grout) = 0  Max(alpha.grout) = 1
MULES: Correcting alpha.grout
MULES: Correcting alpha.grout
Phase-1 volume fraction = 0.5  Min(alpha.grout) = 0  Max(alpha.grout) = 1
DICPCG:  Solving for p_rgh, Initial residual = 8.89408e-08, Final residual = 8.89408e-08, No Iterations 0
time step continuity errors : sum local = 3.82484e-06, global = 1.93603e-09, cumulative = -5.591e-06
DICPCG:  Solving for p_rgh, Initial residual = 9.08608e-08, Final residual = 9.08608e-08, No Iterations 0
time step continuity errors : sum local = 3.90741e-06, global = 1.93603e-09, cumulative = -5.58907e-06
DICPCG:  Solving for p_rgh, Initial residual = 9.27144e-08, Final residual = 9.27144e-08, No Iterations 0
time step continuity errors : sum local = 3.98713e-06, global = 1.93603e-09, cumulative = -5.58713e-06
ExecutionTime = 1.78 s  ClockTime = 3 s

fieldMinMax continuityError write:
    min(divPhi) = -0.0131464 in cell 5301 at location (0.015 0.535 0.005)
    max(divPhi) = 0.0206288 in cell 5400 at location (0.005 0.545 0.005)

Courant Number mean: 8.75464e-06 max: 0.00132808
Interface Courant Number mean: 0 max: 0
Time = 9.1

PIMPLE: iteration 1
smoothSolver:  Solving for alpha.grout, Initial residual = 7.13121e-07, Final residual = 3.65827e-17, No Iterations 1
Phase-1 volume fraction = 0.5  Min(alpha.grout) = 0  Max(alpha.grout) = 1.00001
MULES: Correcting alpha.grout
MULES: Correcting alpha.grout
Phase-1 volume fraction = 0.5  Min(alpha.grout) = 0  Max(alpha.grout) = 1.00001
DICPCG:  Solving for p_rgh, Initial residual = 1.21672e-07, Final residual = 8.19123e-08, No Iterations 41
time step continuity errors : sum local = 3.52259e-06, global = -1.44014e-08, cumulative = -5.60153e-06
DICPCG:  Solving for p_rgh, Initial residual = 1.12921e-08, Final residual = 1.12921e-08, No Iterations 0
time step continuity errors : sum local = 4.19477e-06, global = -1.44014e-08, cumulative = -5.61593e-06
DICPCG:  Solving for p_rgh, Initial residual = 1.30808e-08, Final residual = 1.30808e-08, No Iterations 0
time step continuity errors : sum local = 4.85924e-06, global = -1.44014e-08, cumulative = -5.63033e-06
ExecutionTime = 1.8 s  ClockTime = 3 s

fieldMinMax continuityError write:
    min(divPhi) = -0.0397706 in cell 5301 at location (0.015 0.535 0.005)
    max(divPhi) = 0.025312 in cell 5400 at location (0.005 0.545 0.005)

Courant Number mean: 1.33497e-05 max: 0.00198853
Interface Courant Number mean: 0 max: 0
Time = 9.2

PIMPLE: iteration 1
smoothSolver:  Solving for alpha.grout, Initial residual = 1.36162e-06, Final residual = 7.17866e-17, No Iterations 1
Phase-1 volume fraction = 0.5  Min(alpha.grout) = 0  Max(alpha.grout) = 1
MULES: Correcting alpha.grout
MULES: Correcting alpha.grout
Phase-1 volume fraction = 0.5  Min(alpha.grout) = 0  Max(alpha.grout) = 1
DICPCG:  Solving for p_rgh, Initial residual = 2.05141e-08, Final residual = 2.05141e-08, No Iterations 0
time step continuity errors : sum local = 7.62056e-06, global = -1.44014e-08, cumulative = -5.64474e-06
DICPCG:  Solving for p_rgh, Initial residual = 2.21805e-08, Final residual = 2.21805e-08, No Iterations 0
time step continuity errors : sum local = 8.23957e-06, global = -1.44014e-08, cumulative = -5.65914e-06
DICPCG:  Solving for p_rgh, Initial residual = 2.38321e-08, Final residual = 2.38321e-08, No Iterations 0
time step continuity errors : sum local = 8.85311e-06, global = -1.44014e-08, cumulative = -5.67354e-06
ExecutionTime = 1.82 s  ClockTime = 3 s

fieldMinMax continuityError write:
    min(divPhi) = -0.0550719 in cell 5301 at location (0.015 0.535 0.005)
    max(divPhi) = 0.0333012 in cell 5202 at location (0.025 0.525 0.005)

Courant Number mean: 3.0086e-05 max: 0.00275359
Interface Courant Number mean: 0 max: 0
Time = 9.3

PIMPLE: iteration 1
smoothSolver:  Solving for alpha.grout, Initial residual = 3.25261e-06, Final residual = 6.98666e-16, No Iterations 1
Phase-1 volume fraction = 0.5  Min(alpha.grout) = 0  Max(alpha.grout) = 1.00002
MULES: Correcting alpha.grout
MULES: Correcting alpha.grout
Phase-1 volume fraction = 0.5  Min(alpha.grout) = 0  Max(alpha.grout) = 1.00002
DICPCG:  Solving for p_rgh, Initial residual = 3.17111e-08, Final residual = 3.17111e-08, No Iterations 0
time step continuity errors : sum local = 1.178e-05, global = -1.44014e-08, cumulative = -5.68794e-06
DICPCG:  Solving for p_rgh, Initial residual = 3.32714e-08, Final residual = 3.32714e-08, No Iterations 0
time step continuity errors : sum local = 1.23596e-05, global = -1.44014e-08, cumulative = -5.70234e-06
DICPCG:  Solving for p_rgh, Initial residual = 3.48003e-08, Final residual = 3.48003e-08, No Iterations 0
time step continuity errors : sum local = 1.29275e-05, global = -1.44014e-08, cumulative = -5.71674e-06
ExecutionTime = 1.83 s  ClockTime = 3 s

fieldMinMax continuityError write:
    min(divPhi) = -0.0670661 in cell 5301 at location (0.015 0.535 0.005)
    max(divPhi) = 0.0410774 in cell 5202 at location (0.025 0.525 0.005)

Courant Number mean: 4.62375e-05 max: 0.00338979
Interface Courant Number mean: 0 max: 0
Time = 9.4

PIMPLE: iteration 1
smoothSolver:  Solving for alpha.grout, Initial residual = 5.00559e-06, Final residual = 2.57855e-15, No Iterations 1
Phase-1 volume fraction = 0.5  Min(alpha.grout) = 0  Max(alpha.grout) = 1.00005
MULES: Correcting alpha.grout
MULES: Correcting alpha.grout
Phase-1 volume fraction = 0.5  Min(alpha.grout) = 0  Max(alpha.grout) = 1.00005
DICPCG:  Solving for p_rgh, Initial residual = 1.17869e-07, Final residual = 9.94545e-08, No Iterations 40
time step continuity errors : sum local = 3.6945e-05, global = 1.12926e-07, cumulative = -5.60382e-06
DICPCG:  Solving for p_rgh, Initial residual = 1.46411e-08, Final residual = 1.46411e-08, No Iterations 0
time step continuity errors : sum local = 4.16231e-05, global = 1.12926e-07, cumulative = -5.49089e-06
DICPCG:  Solving for p_rgh, Initial residual = 1.62848e-08, Final residual = 1.62848e-08, No Iterations 0
time step continuity errors : sum local = 4.62958e-05, global = 1.12926e-07, cumulative = -5.37797e-06
ExecutionTime = 1.85 s  ClockTime = 3 s

fieldMinMax continuityError write:
    min(divPhi) = -0.352767 in cell 5400 at location (0.005 0.545 0.005)
    max(divPhi) = 0.558711 in cell 5301 at location (0.015 0.535 0.005)

Courant Number mean: 0.000105091 max: 0.0279355
Interface Courant Number mean: 0 max: 0
Time = 9.5

PIMPLE: iteration 1
smoothSolver:  Solving for alpha.grout, Initial residual = 9.63969e-06, Final residual = 1.76728e-14, No Iterations 1
Phase-1 volume fraction = 0.5  Min(alpha.grout) = 4.61308e-310  Max(alpha.grout) = 1.00001
MULES: Correcting alpha.grout
MULES: Correcting alpha.grout
Phase-1 volume fraction = 0.5  Min(alpha.grout) = 4.61308e-310  Max(alpha.grout) = 1.00001
DICPCG:  Solving for p_rgh, Initial residual = 2.75867e-08, Final residual = 2.75867e-08, No Iterations 0
time step continuity errors : sum local = 7.84264e-05, global = 1.12926e-07, cumulative = -5.26504e-06
DICPCG:  Solving for p_rgh, Initial residual = 2.84273e-08, Final residual = 2.84273e-08, No Iterations 0
time step continuity errors : sum local = 8.08162e-05, global = 1.12926e-07, cumulative = -5.15211e-06
DICPCG:  Solving for p_rgh, Initial residual = 2.99446e-08, Final residual = 2.99446e-08, No Iterations 0
time step continuity errors : sum local = 8.51297e-05, global = 1.12926e-07, cumulative = -5.03919e-06
ExecutionTime = 1.87 s  ClockTime = 3 s

fieldMinMax continuityError write:
    min(divPhi) = -0.605311 in cell 5400 at location (0.005 0.545 0.005)
    max(divPhi) = 0.865915 in cell 5301 at location (0.015 0.535 0.005)

Courant Number mean: 0.000235286 max: 0.0432958
Interface Courant Number mean: 0 max: 0
Time = 9.6

PIMPLE: iteration 1
smoothSolver:  Solving for alpha.grout, Initial residual = 2.30928e-05, Final residual = 2.42075e-13, No Iterations 1
Phase-1 volume fraction = 0.5  Min(alpha.grout) = 7.13578e-304  Max(alpha.grout) = 1.00012
MULES: Correcting alpha.grout
MULES: Correcting alpha.grout
Phase-1 volume fraction = 0.5  Min(alpha.grout) = 7.13578e-304  Max(alpha.grout) = 1.00012
DICPCG:  Solving for p_rgh, Initial residual = 4.2947e-08, Final residual = 4.2947e-08, No Iterations 0
time step continuity errors : sum local = 0.000122094, global = 1.12926e-07, cumulative = -4.92626e-06
DICPCG:  Solving for p_rgh, Initial residual = 4.44381e-08, Final residual = 4.44381e-08, No Iterations 0
time step continuity errors : sum local = 0.000126333, global = 1.12926e-07, cumulative = -4.81333e-06
DICPCG:  Solving for p_rgh, Initial residual = 4.58712e-08, Final residual = 4.58712e-08, No Iterations 0
time step continuity errors : sum local = 0.000130407, global = 1.12926e-07, cumulative = -4.70041e-06
ExecutionTime = 1.88 s  ClockTime = 3 s

fieldMinMax continuityError write:
    min(divPhi) = -0.830897 in cell 5400 at location (0.005 0.545 0.005)
    max(divPhi) = 1.12774 in cell 5301 at location (0.015 0.535 0.005)

Courant Number mean: 0.000364153 max: 0.0563872
Interface Courant Number mean: 0 max: 0
Time = 9.7

PIMPLE: iteration 1
smoothSolver:  Solving for alpha.grout, Initial residual = 3.56177e-05, Final residual = 9.11481e-13, No Iterations 1
Phase-1 volume fraction = 0.5  Min(alpha.grout) = 1.29568e-294  Max(alpha.grout) = 1.0003
MULES: Correcting alpha.grout
MULES: Correcting alpha.grout
Phase-1 volume fraction = 0.5  Min(alpha.grout) = 1.29568e-294  Max(alpha.grout) = 1.0003
DICPCG:  Solving for p_rgh, Initial residual = 9.16803e-07, Final residual = 8.23052e-08, No Iterations 41
time step continuity errors : sum local = 0.000233986, global = -7.83036e-07, cumulative = -5.48344e-06
DICPCG:  Solving for p_rgh, Initial residual = 1.22335e-08, Final residual = 1.22335e-08, No Iterations 0
time step continuity errors : sum local = 0.000267657, global = -7.83036e-07, cumulative = -6.26648e-06
DICPCG:  Solving for p_rgh, Initial residual = 1.37322e-08, Final residual = 1.37322e-08, No Iterations 0
time step continuity errors : sum local = 0.000300448, global = -7.83036e-07, cumulative = -7.04952e-06
ExecutionTime = 1.9 s  ClockTime = 3 s

fieldMinMax continuityError write:
    min(divPhi) = -2.2639 in cell 5102 at location (0.025 0.515 0.005)
    max(divPhi) = 3.55997 in cell 5201 at location (0.015 0.525 0.005)

Courant Number mean: 0.000736829 max: 0.177999
Interface Courant Number mean: 0 max: 0
Time = 9.8

PIMPLE: iteration 1
smoothSolver:  Solving for alpha.grout, Initial residual = 6.86448e-05, Final residual = 6.79393e-12, No Iterations 1
Phase-1 volume fraction = 0.5  Min(alpha.grout) = 3.32248e-294  Max(alpha.grout) = 1.00009
MULES: Correcting alpha.grout
MULES: Correcting alpha.grout
Phase-1 volume fraction = 0.5  Min(alpha.grout) = 3.32248e-294  Max(alpha.grout) = 1.00009
DICPCG:  Solving for p_rgh, Initial residual = 1.63593e-08, Final residual = 1.63593e-08, No Iterations 0
time step continuity errors : sum local = 0.000357897, global = -7.82967e-07, cumulative = -7.83248e-06
DICPCG:  Solving for p_rgh, Initial residual = 1.77794e-08, Final residual = 1.77794e-08, No Iterations 0
time step continuity errors : sum local = 0.000388963, global = -7.82967e-07, cumulative = -8.61545e-06
DICPCG:  Solving for p_rgh, Initial residual = 1.91904e-08, Final residual = 1.91904e-08, No Iterations 0
time step continuity errors : sum local = 0.000419834, global = -7.82967e-07, cumulative = -9.39842e-06
ExecutionTime = 1.92 s  ClockTime = 3 s

fieldMinMax continuityError write:
    min(divPhi) = -3.28035 in cell 5300 at location (0.005 0.535 0.005)
    max(divPhi) = 3.40172 in cell 5201 at location (0.015 0.525 0.005)

Courant Number mean: 0.00151937 max: 0.187805
Interface Courant Number mean: 0 max: 0
Time = 9.9

PIMPLE: iteration 1
smoothSolver:  Solving for alpha.grout, Initial residual = 0.000164558, Final residual = 9.75681e-11, No Iterations 1
Phase-1 volume fraction = 0.5  Min(alpha.grout) = 9.17212e-294  Max(alpha.grout) = 1.00104
MULES: Correcting alpha.grout
MULES: Correcting alpha.grout
Phase-1 volume fraction = 0.5  Min(alpha.grout) = 9.17212e-294  Max(alpha.grout) = 1.00104
DICPCG:  Solving for p_rgh, Initial residual = 2.19072e-08, Final residual = 2.19072e-08, No Iterations 0
time step continuity errors : sum local = 0.000479209, global = -7.82859e-07, cumulative = -1.01813e-05
DICPCG:  Solving for p_rgh, Initial residual = 2.32671e-08, Final residual = 2.32671e-08, No Iterations 0
time step continuity errors : sum local = 0.000508955, global = -7.82859e-07, cumulative = -1.09641e-05
DICPCG:  Solving for p_rgh, Initial residual = 2.45863e-08, Final residual = 2.45863e-08, No Iterations 0
time step continuity errors : sum local = 0.000537811, global = -7.82859e-07, cumulative = -1.1747e-05
ExecutionTime = 1.93 s  ClockTime = 3 s

fieldMinMax continuityError write:
    min(divPhi) = -4.41172 in cell 5300 at location (0.005 0.535 0.005)
    max(divPhi) = 2.98436 in cell 5301 at location (0.015 0.535 0.005)

Courant Number mean: 0.00226587 max: 0.229169
Interface Courant Number mean: 0 max: 0
Time = 10

PIMPLE: iteration 1
smoothSolver:  Solving for alpha.grout, Initial residual = 0.000253797, Final residual = 3.67707e-10, No Iterations 1
Phase-1 volume fraction = 0.5  Min(alpha.grout) = 1.88353e-293  Max(alpha.grout) = 1.00256
MULES: Correcting alpha.grout
MULES: Correcting alpha.grout
Phase-1 volume fraction = 0.5  Min(alpha.grout) = -6.14156e-17  Max(alpha.grout) = 1.00256
DICPCG:  Solving for p_rgh, Initial residual = 2.17804e-06, Final residual = 8.99265e-08, No Iterations 48
time step continuity errors : sum local = 0.00196685, global = 3.83784e-06, cumulative = -7.90915e-06
DICPCG:  Solving for p_rgh, Initial residual = 1.32006e-08, Final residual = 1.32006e-08, No Iterations 0
time step continuity errors : sum local = 0.00222062, global = 3.83784e-06, cumulative = -4.0713e-06
DICPCG:  Solving for p_rgh, Initial residual = 1.46145e-08, Final residual = 1.46145e-08, No Iterations 0
time step continuity errors : sum local = 0.00245846, global = 3.83784e-06, cumulative = -2.3346e-07
ExecutionTime = 1.99 s  ClockTime = 3 s

fieldMinMax continuityError write:
    min(divPhi) = -13.3681 in cell 5336 at location (0.365 0.535 0.005)
    max(divPhi) = 18.7109 in cell 5237 at location (0.375 0.525 0.005)

End

